<?xml version="1.0" encoding="UTF-8"?>

<!-- generated on Mo 01 Mai 2017 12:47:14 CEST by Netedit Version 0.29.0
<?xml version="1.0" encoding="UTF-8"?>

<configuration xmlns:xsi="http://www.w3.org/2001/XMLSchema-instance" xsi:noNamespaceSchemaLocation="http://sumo.dlr.de/xsd/netedit.exeConfiguration.xsd">

    <input>
        <sumo-net-file value="/home/chris/Documents/GIT/SUMO-MAP/map.net.xml"/>
    </input>

    <output>
        <output-file value="/home/chris/Documents/GIT/SUMO-MAP/map.net.xml"/>
    </output>

    <processing>
        <no-turnarounds value="true"/>
        <offset.disable-normalization value="true"/>
        <lefthand value="false"/>
        <junctions.corner-detail value="0"/>
    </processing>

</configuration>
-->

<net version="0.27" xmlns:xsi="http://www.w3.org/2001/XMLSchema-instance" xsi:noNamespaceSchemaLocation="http://sumo.dlr.de/xsd/net_file.xsd">

    <location netOffset="-565439.62,-5934035.06" convBoundary="105.29,67.49,2059.10,2927.60" origBoundary="9.99,53.55,10.02,53.58" projParameter="+proj=utm +zone=32 +ellps=WGS84 +datum=WGS84 +units=m +no_defs"/>

    <edge id=":0_0" function="internal">
        <lane id=":0_0_0" index="0" speed="13.90" length="10.22" shape="1948.59,1482.27 1939.83,1477.02"/>
    </edge>
    <edge id=":0_1" function="internal">
        <lane id=":0_1_0" index="0" speed="13.90" length="10.25" shape="1948.59,1482.27 1946.22,1480.52 1944.95,1478.88 1943.97,1476.94 1942.47,1474.28"/>
    </edge>
    <edge id=":1_0" function="internal">
        <lane id=":1_0_0" index="0" speed="13.90" length="9.61" shape="1938.54,1440.53 1937.88,1443.65 1937.70,1446.25 1937.99,1448.32 1938.76,1449.86"/>
    </edge>
    <edge id=":1_1" function="internal">
        <lane id=":1_1_0" index="0" speed="13.90" length="2.30" shape="1938.54,1440.53 1937.43,1441.51 1936.63,1441.68"/>
    </edge>
    <edge id=":1_6" function="internal">
        <lane id=":1_6_0" index="0" speed="13.90" length="2.52" shape="1936.63,1441.68 1936.53,1441.70 1935.83,1441.09 1935.35,1439.68"/>
    </edge>
    <edge id=":1_2" function="internal">
        <lane id=":1_2_0" index="0" speed="13.90" length="6.07" shape="1931.23,1440.59 1932.59,1441.86 1933.73,1442.14 1934.65,1441.41 1935.35,1439.68"/>
    </edge>
    <edge id=":1_3" function="internal">
        <lane id=":1_3_0" index="0" speed="13.90" length="11.94" shape="1931.23,1440.59 1938.76,1449.86"/>
    </edge>
    <edge id=":1_4" function="internal">
        <lane id=":1_4_0" index="0" speed="13.90" length="11.34" shape="1934.80,1450.96 1934.97,1447.79 1934.83,1445.28 1934.82,1442.79 1935.35,1439.68"/>
    </edge>
    <edge id=":1_5" function="internal">
        <lane id=":1_5_0" index="0" speed="13.90" length="3.53" shape="1934.80,1450.96 1935.30,1448.92 1936.13,1448.05 1936.35,1448.11"/>
    </edge>
    <edge id=":1_7" function="internal">
        <lane id=":1_7_0" index="0" speed="13.90" length="3.07" shape="1936.35,1448.11 1937.28,1448.37 1938.76,1449.86"/>
    </edge>
    <edge id=":102_0" function="internal">
        <lane id=":102_0_0" index="0" speed="13.90" length="6.09" shape="1064.00,671.41 1062.95,673.03 1062.53,674.47 1062.76,675.72 1063.63,676.79"/>
    </edge>
    <edge id=":102_1" function="internal">
        <lane id=":102_1_0" index="0" speed="13.90" length="9.74" shape="1064.00,671.41 1057.64,678.89"/>
        <lane id=":102_1_1" index="1" speed="13.90" length="9.74" shape="1061.43,669.34 1055.17,676.69"/>
    </edge>
    <edge id=":102_3" function="internal">
        <lane id=":102_3_0" index="0" speed="13.90" length="8.21" shape="1061.43,669.34 1059.53,671.35 1057.75,672.53 1056.09,672.86 1054.55,672.36"/>
    </edge>
    <edge id=":102_4" function="internal">
        <lane id=":102_4_0" index="0" speed="13.90" length="10.35" shape="1056.30,669.56 1058.69,671.36 1060.11,672.98 1061.45,674.70 1063.63,676.79"/>
    </edge>
    <edge id=":102_5" function="internal">
        <lane id=":102_5_0" index="0" speed="13.90" length="8.36" shape="1056.30,669.56 1057.49,670.79 1057.70,672.39 1056.93,674.36 1055.17,676.69"/>
    </edge>
    <edge id=":104_0" function="internal">
        <lane id=":104_0_0" index="0" speed="13.89" length="3.02" shape="358.06,768.34 353.88,766.86"/>
        <lane id=":104_0_1" index="1" speed="13.89" length="3.02" shape="358.06,768.34 357.71,767.58 357.48,767.05 357.27,766.51 356.98,765.72"/>
        <lane id=":104_0_2" index="2" speed="13.89" length="3.02" shape="361.05,766.93 360.73,766.25 360.52,765.78 360.34,765.30 360.08,764.59"/>
        <lane id=":104_0_3" index="3" speed="13.89" length="3.02" shape="364.04,765.53 363.75,764.93 363.57,764.51 363.40,764.08 363.17,763.45"/>
    </edge>
    <edge id=":115_0" function="internal">
        <lane id=":115_0_0" index="0" speed="13.90" length="0.31" shape="1372.70,2336.41 1372.60,2336.71"/>
    </edge>
    <edge id=":115_1" function="internal">
        <lane id=":115_1_0" index="0" speed="13.90" length="2.41" shape="1372.70,2336.41 1371.53,2337.33 1370.62,2337.46"/>
    </edge>
    <edge id=":115_4" function="internal">
        <lane id=":115_4_0" index="0" speed="13.90" length="2.41" shape="1370.62,2337.46 1369.96,2336.81 1369.57,2335.37"/>
    </edge>
    <edge id=":115_2" function="internal">
        <lane id=":115_2_0" index="0" speed="13.90" length="0.26" shape="1369.48,2335.62 1369.57,2335.37"/>
    </edge>
    <edge id=":115_3" function="internal">
        <lane id=":115_3_0" index="0" speed="13.90" length="2.41" shape="1369.48,2335.62 1370.67,2334.73 1371.59,2334.61"/>
    </edge>
    <edge id=":115_5" function="internal">
        <lane id=":115_5_0" index="0" speed="13.90" length="2.41" shape="1371.59,2334.61 1372.23,2335.27 1372.60,2336.71"/>
    </edge>
    <edge id=":116_0" function="internal">
        <lane id=":116_0_0" index="0" speed="13.90" length="4.82" shape="1713.81,2778.07 1714.90,2779.09 1715.17,2779.97 1714.63,2780.72 1713.27,2781.33"/>
    </edge>
    <edge id=":12_0" function="internal">
        <lane id=":12_0_0" index="0" speed="13.90" length="4.82" shape="1482.37,2101.61 1482.42,2100.12 1482.90,2099.34 1483.82,2099.25 1485.17,2099.87"/>
    </edge>
    <edge id=":128_0" function="internal">
        <lane id=":128_0_0" index="0" speed="13.90" length="0.29" shape="1879.44,1266.55 1879.22,1266.75"/>
    </edge>
    <edge id=":129_0" function="internal">
        <lane id=":129_0_0" index="0" speed="13.90" length="10.46" shape="1851.94,1292.93 1849.91,1295.15 1848.79,1297.00 1847.90,1299.04 1846.58,1301.80"/>
    </edge>
    <edge id=":129_1" function="internal">
        <lane id=":129_1_0" index="0" speed="13.90" length="10.44" shape="1851.94,1292.93 1849.69,1294.96 1847.97,1296.30 1846.18,1297.56 1843.71,1299.34"/>
    </edge>
    <edge id=":13_0" function="internal">
        <lane id=":13_0_0" index="0" speed="13.90" length="10.27" shape="1728.47,2259.73 1724.63,2269.26"/>
    </edge>
    <edge id=":13_1" function="internal">
        <lane id=":13_1_0" index="0" speed="13.90" length="4.44" shape="1728.47,2259.73 1727.24,2261.52 1725.39,2262.83"/>
    </edge>
    <edge id=":13_2" function="internal">
        <lane id=":13_2_0" index="0" speed="13.90" length="2.41" shape="1728.47,2259.73 1727.23,2260.54 1726.30,2260.60"/>
    </edge>
    <edge id=":13_9" function="internal">
        <lane id=":13_9_0" index="0" speed="13.90" length="6.76" shape="1725.39,2262.83 1725.23,2262.94 1722.46,2263.99 1718.92,2264.68"/>
    </edge>
    <edge id=":13_10" function="internal">
        <lane id=":13_10_0" index="0" speed="13.90" length="2.41" shape="1726.30,2260.60 1725.71,2259.89 1725.44,2258.43"/>
    </edge>
    <edge id=":13_3" function="internal">
        <lane id=":13_3_0" index="0" speed="13.90" length="7.81" shape="1718.50,2261.41 1721.18,2260.93 1723.23,2260.28 1724.65,2259.44 1725.44,2258.43"/>
    </edge>
    <edge id=":13_4" function="internal">
        <lane id=":13_4_0" index="0" speed="13.90" length="13.42" shape="1718.50,2261.41 1722.51,2261.43 1724.87,2262.75 1725.58,2265.36 1724.63,2269.26"/>
    </edge>
    <edge id=":13_5" function="internal">
        <lane id=":13_5_0" index="0" speed="13.90" length="4.82" shape="1718.50,2261.41 1719.84,2262.07 1720.35,2262.83 1720.05,2263.70 1718.92,2264.68"/>
    </edge>
    <edge id=":13_6" function="internal">
        <lane id=":13_6_0" index="0" speed="13.90" length="5.77" shape="1721.56,2268.06 1721.96,2266.38 1721.66,2265.26 1720.65,2264.69 1718.92,2264.68"/>
    </edge>
    <edge id=":13_7" function="internal">
        <lane id=":13_7_0" index="0" speed="13.90" length="10.38" shape="1721.56,2268.06 1725.44,2258.43"/>
    </edge>
    <edge id=":13_8" function="internal">
        <lane id=":13_8_0" index="0" speed="13.90" length="2.41" shape="1721.56,2268.06 1722.78,2267.20 1723.69,2267.12"/>
    </edge>
    <edge id=":13_11" function="internal">
        <lane id=":13_11_0" index="0" speed="13.90" length="2.41" shape="1723.69,2267.12 1724.31,2267.80 1724.63,2269.26"/>
    </edge>
    <edge id=":131_0" function="internal">
        <lane id=":131_0_0" index="0" speed="13.90" length="16.85" shape="1733.27,1213.78 1722.91,1200.64"/>
        <lane id=":131_0_1" index="1" speed="13.90" length="16.85" shape="1736.00,1211.93 1725.51,1198.60"/>
    </edge>
    <edge id=":131_2" function="internal">
        <lane id=":131_2_0" index="0" speed="13.90" length="15.91" shape="1739.69,1190.61 1740.50,1194.00 1741.71,1197.16 1743.59,1200.60 1746.42,1204.86"/>
    </edge>
    <edge id=":131_3" function="internal">
        <lane id=":131_3_0" index="0" speed="13.90" length="17.52" shape="1735.88,1190.43 1746.42,1204.86"/>
        <lane id=":131_3_1" index="1" speed="13.90" length="17.52" shape="1733.29,1192.47 1743.69,1206.72"/>
        <lane id=":131_3_2" index="2" speed="13.90" length="17.52" shape="1730.69,1194.51 1740.96,1208.57"/>
        <lane id=":131_3_3" index="3" speed="13.90" length="17.52" shape="1728.10,1196.56 1738.23,1210.42"/>
    </edge>
    <edge id=":133_0" function="internal">
        <lane id=":133_0_0" index="0" speed="13.90" length="0.91" shape="1955.80,1296.68 1956.00,1296.86 1956.12,1297.00 1956.20,1297.17 1956.28,1297.42"/>
    </edge>
    <edge id=":137_0" function="internal">
        <lane id=":137_0_0" index="0" speed="13.90" length="3.93" shape="1969.22,1496.06 1968.44,1495.20 1967.85,1494.66 1967.21,1494.18 1966.24,1493.53"/>
    </edge>
    <edge id=":137_1" function="internal">
        <lane id=":137_1_0" index="0" speed="13.90" length="2.41" shape="1969.22,1496.06 1969.02,1494.59 1969.36,1493.73"/>
    </edge>
    <edge id=":137_4" function="internal">
        <lane id=":137_4_0" index="0" speed="13.90" length="2.41" shape="1969.36,1493.73 1970.25,1493.49 1971.69,1493.87"/>
    </edge>
    <edge id=":137_2" function="internal">
        <lane id=":137_2_0" index="0" speed="13.90" length="6.18" shape="1967.82,1489.07 1968.82,1490.61 1969.59,1491.59 1970.45,1492.52 1971.69,1493.87"/>
    </edge>
    <edge id=":137_3" function="internal">
        <lane id=":137_3_0" index="0" speed="13.90" length="6.44" shape="1967.82,1489.07 1969.91,1492.91 1970.35,1494.94"/>
    </edge>
    <edge id=":137_5" function="internal">
        <lane id=":137_5_0" index="0" speed="13.90" length="4.54" shape="1970.35,1494.94 1969.12,1495.14 1966.24,1493.53"/>
    </edge>
    <edge id=":14_0" function="internal">
        <lane id=":14_0_0" index="0" speed="13.90" length="5.01" shape="1858.57,1955.57 1858.43,1956.94 1858.76,1958.02 1859.57,1958.81 1860.85,1959.31"/>
    </edge>
    <edge id=":14_1" function="internal">
        <lane id=":14_1_0" index="0" speed="13.90" length="5.91" shape="1858.57,1955.57 1858.15,1957.27 1857.82,1958.43 1857.39,1959.55 1856.67,1961.15"/>
    </edge>
    <edge id=":14_2" function="internal">
        <lane id=":14_2_0" index="0" speed="13.90" length="2.41" shape="1858.57,1955.57 1857.47,1956.57 1856.57,1956.77"/>
    </edge>
    <edge id=":14_6" function="internal">
        <lane id=":14_6_0" index="0" speed="13.90" length="2.41" shape="1856.57,1956.77 1855.87,1956.17 1855.37,1954.77"/>
    </edge>
    <edge id=":14_3" function="internal">
        <lane id=":14_3_0" index="0" speed="13.90" length="5.28" shape="1853.68,1959.76 1854.32,1958.33 1854.70,1957.33 1854.99,1956.30 1855.37,1954.77"/>
    </edge>
    <edge id=":14_4" function="internal">
        <lane id=":14_4_0" index="0" speed="13.90" length="2.58" shape="1853.68,1959.76 1854.46,1959.01 1855.92,1958.68"/>
    </edge>
    <edge id=":14_5" function="internal">
        <lane id=":14_5_0" index="0" speed="13.90" length="2.41" shape="1853.68,1959.76 1854.95,1958.98 1855.87,1958.96"/>
    </edge>
    <edge id=":14_7" function="internal">
        <lane id=":14_7_0" index="0" speed="13.90" length="4.99" shape="1855.92,1958.68 1858.05,1958.79 1860.85,1959.31"/>
    </edge>
    <edge id=":14_8" function="internal">
        <lane id=":14_8_0" index="0" speed="13.90" length="2.41" shape="1855.87,1958.96 1856.44,1959.68 1856.67,1961.15"/>
    </edge>
    <edge id=":141_0" function="internal">
        <lane id=":141_0_0" index="0" speed="13.90" length="4.82" shape="1741.74,2633.29 1742.82,2634.31 1743.10,2635.19 1742.56,2635.93 1741.20,2636.55"/>
    </edge>
    <edge id=":143_0" function="internal">
        <lane id=":143_0_0" index="0" speed="13.90" length="4.82" shape="1446.13,2928.23 1444.89,2929.06 1443.97,2929.13 1443.37,2928.43 1443.07,2926.97"/>
    </edge>
    <edge id=":144_0" function="internal">
        <lane id=":144_0_0" index="0" speed="13.90" length="10.01" shape="419.84,135.00 412.72,142.05"/>
    </edge>
    <edge id=":144_1" function="internal">
        <lane id=":144_1_0" index="0" speed="13.90" length="11.16" shape="410.35,139.75 411.21,138.24 411.64,135.93 411.64,132.81 411.21,128.88"/>
    </edge>
    <edge id=":144_2" function="internal">
        <lane id=":144_2_0" index="0" speed="13.90" length="10.44" shape="410.35,139.75 412.04,137.28 412.66,135.07 413.34,132.84 415.22,130.29"/>
        <lane id=":144_2_1" index="1" speed="13.90" length="10.44" shape="410.35,139.75 417.53,132.65"/>
    </edge>
    <edge id=":148_0" function="internal">
        <lane id=":148_0_0" index="0" speed="13.90" length="4.82" shape="527.59,973.54 527.58,975.03 527.12,975.83 526.20,975.93 524.83,975.35"/>
    </edge>
    <edge id=":149_0" function="internal">
        <lane id=":149_0_0" index="0" speed="13.89" length="6.00" shape="472.15,894.73 471.51,893.79 470.98,893.20 470.31,892.77 469.28,892.28"/>
        <lane id=":149_0_1" index="1" speed="13.89" length="6.00" shape="472.15,894.73 470.64,889.27"/>
        <lane id=":149_0_2" index="2" speed="13.89" length="6.00" shape="472.15,894.73 471.99,886.26"/>
    </edge>
    <edge id=":149_3" function="internal">
        <lane id=":149_3_0" index="0" speed="13.90" length="2.91" shape="472.15,894.73 472.17,893.25 472.63,892.45 473.13,892.39"/>
    </edge>
    <edge id=":149_5" function="internal">
        <lane id=":149_5_0" index="0" speed="13.90" length="1.91" shape="473.13,892.39 473.55,892.34 474.92,892.93"/>
    </edge>
    <edge id=":149_4" function="internal">
        <lane id=":149_4_0" index="0" speed="13.89" length="10.58" shape="473.35,883.25 475.10,885.04 474.80,887.31 474.17,889.97 474.92,892.93"/>
    </edge>
    <edge id=":152_0" function="internal">
        <lane id=":152_0_0" index="0" speed="13.89" length="9.76" shape="1072.01,721.36 1070.21,720.15 1068.72,719.77 1067.08,719.79 1064.80,719.81"/>
        <lane id=":152_0_1" index="1" speed="13.89" length="9.76" shape="1074.11,718.82 1071.81,717.22 1069.94,716.62 1067.86,716.54 1064.95,716.51"/>
        <lane id=":152_0_2" index="2" speed="13.89" length="9.76" shape="1076.21,716.27 1073.41,714.28 1071.15,713.47 1068.64,713.29 1065.10,713.22"/>
    </edge>
    <edge id=":152_3" function="internal">
        <lane id=":152_3_0" index="0" speed="13.90" length="12.14" shape="1071.70,705.03 1074.40,706.86 1076.90,707.05 1079.51,707.13 1082.51,708.63"/>
        <lane id=":152_3_1" index="1" speed="13.90" length="12.14" shape="1069.27,707.27 1072.05,709.18 1074.63,709.44 1077.31,709.59 1080.41,711.18"/>
        <lane id=":152_3_2" index="2" speed="13.90" length="12.14" shape="1066.84,709.50 1069.71,711.51 1072.36,711.84 1075.11,712.06 1078.31,713.73"/>
    </edge>
    <edge id=":154_0" function="internal">
        <lane id=":154_0_0" index="0" speed="13.90" length="13.77" shape="980.27,639.63 991.79,647.31"/>
        <lane id=":154_0_1" index="1" speed="13.90" length="13.77" shape="978.45,642.38 989.93,650.04"/>
        <lane id=":154_0_2" index="2" speed="13.90" length="13.77" shape="976.63,645.14 988.07,652.77"/>
        <lane id=":154_0_3" index="3" speed="13.90" length="13.77" shape="974.81,647.89 986.22,655.50"/>
    </edge>
    <edge id=":154_4" function="internal">
        <lane id=":154_4_0" index="0" speed="13.90" length="12.17" shape="974.78,652.12 979.44,649.88 983.53,648.78 987.02,648.83 989.93,650.04"/>
        <lane id=":154_4_1" index="1" speed="13.90" length="12.17" shape="976.63,654.87 980.31,653.05 983.45,652.09 986.03,652.00 988.07,652.77"/>
        <lane id=":154_4_2" index="2" speed="13.90" length="12.17" shape="978.48,657.61 981.18,656.22 983.37,655.40 985.05,655.16 986.22,655.50"/>
    </edge>
    <edge id=":164_0" function="internal">
        <lane id=":164_0_0" index="0" speed="13.90" length="6.90" shape="921.82,682.75 922.90,682.25 924.03,681.26 925.23,679.80 926.48,677.85"/>
    </edge>
    <edge id=":164_1" function="internal">
        <lane id=":164_1_0" index="0" speed="13.90" length="8.93" shape="922.63,685.95 924.80,684.95 925.95,683.63 927.06,682.18 929.11,680.83"/>
        <lane id=":164_1_1" index="1" speed="13.90" length="8.93" shape="923.44,689.15 925.76,688.11 927.02,686.75 928.24,685.27 930.43,683.85"/>
        <lane id=":164_1_2" index="2" speed="13.90" length="8.93" shape="924.25,692.35 926.72,691.27 928.09,689.88 929.42,688.35 931.75,686.88"/>
    </edge>
    <edge id=":17_0" function="internal">
        <lane id=":17_0_0" index="0" speed="13.90" length="2.09" shape="1266.66,2639.88 1266.58,2639.27 1266.57,2638.84 1266.63,2638.42 1266.80,2637.82"/>
    </edge>
    <edge id=":17_1" function="internal">
        <lane id=":17_1_0" index="0" speed="13.90" length="2.41" shape="1266.66,2639.88 1267.30,2638.54 1268.05,2638.01"/>
    </edge>
    <edge id=":17_4" function="internal">
        <lane id=":17_4_0" index="0" speed="13.90" length="2.41" shape="1268.05,2638.01 1268.93,2638.30 1269.92,2639.40"/>
    </edge>
    <edge id=":17_2" function="internal">
        <lane id=":17_2_0" index="0" speed="13.90" length="0.68" shape="1269.97,2638.73 1269.92,2638.93 1269.89,2639.06 1269.90,2639.20 1269.92,2639.40"/>
    </edge>
    <edge id=":17_3" function="internal">
        <lane id=":17_3_0" index="0" speed="13.90" length="2.41" shape="1269.97,2638.73 1268.83,2639.69 1267.93,2639.86"/>
    </edge>
    <edge id=":17_5" function="internal">
        <lane id=":17_5_0" index="0" speed="13.90" length="2.41" shape="1267.93,2639.86 1267.25,2639.24 1266.80,2637.82"/>
    </edge>
    <edge id=":174_0" function="internal">
        <lane id=":174_0_0" index="0" speed="13.90" length="4.82" shape="2021.26,1592.44 2022.44,1593.35 2022.80,1594.20 2022.33,1595.00 2021.04,1595.74"/>
    </edge>
    <edge id=":175_0" function="internal">
        <lane id=":175_0_0" index="0" speed="13.90" length="5.09" shape="1913.13,1588.44 1911.71,1588.54 1910.66,1589.04 1909.97,1589.96 1909.65,1591.28"/>
    </edge>
    <edge id=":175_1" function="internal">
        <lane id=":175_1_0" index="0" speed="13.90" length="10.45" shape="1913.13,1588.44 1910.32,1587.84 1908.40,1586.49 1907.37,1584.38 1907.22,1581.51"/>
    </edge>
    <edge id=":175_2" function="internal">
        <lane id=":175_2_0" index="0" speed="13.90" length="4.82" shape="1913.13,1588.44 1911.95,1587.54 1911.59,1586.68 1912.06,1585.89 1913.35,1585.15"/>
    </edge>
    <edge id=":175_3" function="internal">
        <lane id=":175_3_0" index="0" speed="13.90" length="5.03" shape="1910.51,1581.81 1910.58,1583.19 1911.07,1584.21 1912.00,1584.86 1913.35,1585.15"/>
    </edge>
    <edge id=":175_4" function="internal">
        <lane id=":175_4_0" index="0" speed="13.90" length="9.51" shape="1910.51,1581.81 1909.65,1591.28"/>
    </edge>
    <edge id=":175_5" function="internal">
        <lane id=":175_5_0" index="0" speed="13.90" length="2.41" shape="1910.51,1581.81 1909.57,1582.97 1908.71,1583.30"/>
    </edge>
    <edge id=":175_9" function="internal">
        <lane id=":175_9_0" index="0" speed="13.90" length="2.41" shape="1908.71,1583.30 1907.93,1582.82 1907.22,1581.51"/>
    </edge>
    <edge id=":175_6" function="internal">
        <lane id=":175_6_0" index="0" speed="13.90" length="9.52" shape="1906.37,1590.99 1907.22,1581.51"/>
    </edge>
    <edge id=":175_7" function="internal">
        <lane id=":175_7_0" index="0" speed="13.90" length="5.24" shape="1906.37,1590.99 1907.01,1588.27 1908.39,1586.39 1908.49,1586.34"/>
    </edge>
    <edge id=":175_8" function="internal">
        <lane id=":175_8_0" index="0" speed="13.90" length="2.41" shape="1906.37,1590.99 1907.30,1589.83 1908.15,1589.49"/>
    </edge>
    <edge id=":175_10" function="internal">
        <lane id=":175_10_0" index="0" speed="13.90" length="5.10" shape="1908.49,1586.34 1910.50,1585.35 1913.35,1585.15"/>
    </edge>
    <edge id=":175_11" function="internal">
        <lane id=":175_11_0" index="0" speed="13.90" length="2.41" shape="1908.15,1589.49 1908.94,1589.98 1909.65,1591.28"/>
    </edge>
    <edge id=":177_0" function="internal">
        <lane id=":177_0_0" index="0" speed="13.90" length="6.45" shape="1103.37,742.06 1101.55,741.46 1099.97,741.92 1098.41,742.37 1096.65,741.68"/>
        <lane id=":177_0_1" index="1" speed="13.90" length="6.45" shape="1105.34,739.41 1103.55,738.83 1102.01,739.33 1100.48,739.79 1098.75,739.14"/>
        <lane id=":177_0_2" index="2" speed="13.90" length="6.45" shape="1105.34,739.41 1100.85,736.59"/>
    </edge>
    <edge id=":177_3" function="internal">
        <lane id=":177_3_0" index="0" speed="13.90" length="4.48" shape="1107.15,728.96 1108.19,729.76 1108.98,730.22 1109.85,730.52 1111.12,730.90"/>
    </edge>
    <edge id=":177_4" function="internal">
        <lane id=":177_4_0" index="0" speed="13.90" length="5.07" shape="1105.05,731.50 1106.24,732.37 1107.13,732.85 1108.05,733.30 1109.28,734.12"/>
        <lane id=":177_4_1" index="1" speed="13.90" length="5.07" shape="1102.95,734.05 1104.17,734.95 1105.10,735.44 1106.04,735.92 1107.31,736.76"/>
    </edge>
    <edge id=":18_0" function="internal">
        <lane id=":18_0_0" index="0" speed="13.90" length="11.32" shape="1874.05,1856.31 1872.45,1867.51"/>
    </edge>
    <edge id=":18_1" function="internal">
        <lane id=":18_1_0" index="0" speed="13.90" length="4.59" shape="1874.05,1856.31 1873.33,1858.27 1871.77,1860.23"/>
    </edge>
    <edge id=":18_2" function="internal">
        <lane id=":18_2_0" index="0" speed="13.90" length="2.41" shape="1874.05,1856.31 1873.06,1857.42 1872.19,1857.71"/>
    </edge>
    <edge id=":18_9" function="internal">
        <lane id=":18_9_0" index="0" speed="13.90" length="7.56" shape="1871.77,1860.23 1871.70,1860.32 1869.16,1862.47 1865.71,1864.71"/>
    </edge>
    <edge id=":18_10" function="internal">
        <lane id=":18_10_0" index="0" speed="13.90" length="2.41" shape="1872.19,1857.71 1871.43,1857.19 1870.78,1855.85"/>
    </edge>
    <edge id=":18_3" function="internal">
        <lane id=":18_3_0" index="0" speed="13.90" length="9.21" shape="1864.04,1861.87 1866.87,1860.08 1868.94,1858.48 1870.24,1857.07 1870.78,1855.85"/>
    </edge>
    <edge id=":18_4" function="internal">
        <lane id=":18_4_0" index="0" speed="13.90" length="15.08" shape="1864.04,1861.87 1868.34,1860.01 1871.18,1860.33 1872.55,1862.83 1872.45,1867.51"/>
    </edge>
    <edge id=":18_5" function="internal">
        <lane id=":18_5_0" index="0" speed="13.90" length="4.82" shape="1864.04,1861.87 1865.53,1861.95 1866.30,1862.45 1866.36,1863.38 1865.71,1864.71"/>
    </edge>
    <edge id=":18_6" function="internal">
        <lane id=":18_6_0" index="0" speed="13.90" length="6.23" shape="1869.19,1867.05 1869.23,1865.11 1868.66,1864.08 1867.49,1863.94 1865.71,1864.71"/>
    </edge>
    <edge id=":18_7" function="internal">
        <lane id=":18_7_0" index="0" speed="13.90" length="11.31" shape="1869.19,1867.05 1870.78,1855.85"/>
    </edge>
    <edge id=":18_8" function="internal">
        <lane id=":18_8_0" index="0" speed="13.90" length="2.41" shape="1869.19,1867.05 1870.18,1865.94 1871.05,1865.65"/>
    </edge>
    <edge id=":18_11" function="internal">
        <lane id=":18_11_0" index="0" speed="13.90" length="2.41" shape="1871.05,1865.65 1871.81,1866.17 1872.45,1867.51"/>
    </edge>
    <edge id=":19_0" function="internal">
        <lane id=":19_0_0" index="0" speed="13.90" length="9.88" shape="1800.92,1943.71 1797.39,1942.85 1794.59,1942.41 1792.55,1942.39 1791.24,1942.80"/>
    </edge>
    <edge id=":19_1" function="internal">
        <lane id=":19_1_0" index="0" speed="13.90" length="15.89" shape="1800.92,1943.71 1796.27,1941.83 1794.47,1939.52 1795.53,1936.80 1799.43,1933.64"/>
    </edge>
    <edge id=":19_2" function="internal">
        <lane id=":19_2_0" index="0" speed="13.90" length="4.82" shape="1800.92,1943.71 1799.95,1942.59 1799.77,1941.68 1800.39,1941.00 1801.80,1940.53"/>
    </edge>
    <edge id=":19_3" function="internal">
        <lane id=":19_3_0" index="0" speed="13.90" length="6.46" shape="1801.19,1936.44 1799.60,1937.72 1799.18,1938.83 1799.91,1939.76 1801.80,1940.53"/>
    </edge>
    <edge id=":19_4" function="internal">
        <lane id=":19_4_0" index="0" speed="13.90" length="11.81" shape="1801.19,1936.44 1791.24,1942.80"/>
    </edge>
    <edge id=":19_5" function="internal">
        <lane id=":19_5_0" index="0" speed="13.90" length="2.41" shape="1801.19,1936.44 1799.71,1936.40 1798.92,1935.92"/>
    </edge>
    <edge id=":19_9" function="internal">
        <lane id=":19_9_0" index="0" speed="13.90" length="2.41" shape="1798.92,1935.92 1798.83,1935.00 1799.43,1933.64"/>
    </edge>
    <edge id=":19_6" function="internal">
        <lane id=":19_6_0" index="0" speed="13.90" length="11.90" shape="1789.41,1940.06 1799.43,1933.64"/>
    </edge>
    <edge id=":19_7" function="internal">
        <lane id=":19_7_0" index="0" speed="13.90" length="4.80" shape="1789.41,1940.06 1791.35,1939.31 1794.06,1939.14"/>
    </edge>
    <edge id=":19_8" function="internal">
        <lane id=":19_8_0" index="0" speed="13.90" length="2.41" shape="1789.41,1940.06 1790.90,1940.06 1791.70,1940.51"/>
    </edge>
    <edge id=":19_10" function="internal">
        <lane id=":19_10_0" index="0" speed="13.90" length="7.87" shape="1794.06,1939.14 1797.55,1939.54 1801.80,1940.53"/>
    </edge>
    <edge id=":19_11" function="internal">
        <lane id=":19_11_0" index="0" speed="13.90" length="2.41" shape="1791.70,1940.51 1791.82,1941.43 1791.24,1942.80"/>
    </edge>
    <edge id=":195_0" function="internal">
        <lane id=":195_0_0" index="0" speed="13.89" length="4.01" shape="530.41,809.10 528.92,813.32"/>
        <lane id=":195_0_1" index="1" speed="13.89" length="4.01" shape="529.15,806.05 527.63,810.29"/>
        <lane id=":195_0_2" index="2" speed="13.89" length="4.01" shape="529.15,806.05 526.34,807.25"/>
    </edge>
    <edge id=":195_3" function="internal">
        <lane id=":195_3_0" index="0" speed="13.89" length="3.11" shape="523.76,801.18 526.64,799.97"/>
        <lane id=":195_3_1" index="1" speed="13.89" length="3.11" shape="525.05,804.21 527.90,803.02"/>
    </edge>
    <edge id=":209_0" function="internal">
        <lane id=":209_0_0" index="0" speed="13.90" length="5.12" shape="1829.08,1309.82 1828.03,1310.78 1827.58,1311.82 1827.72,1312.95 1828.47,1314.16"/>
    </edge>
    <edge id=":209_1" function="internal">
        <lane id=":209_1_0" index="0" speed="13.90" length="6.93" shape="1829.08,1309.82 1827.37,1310.96 1826.17,1311.69 1824.91,1312.32 1823.04,1313.17"/>
    </edge>
    <edge id=":209_2" function="internal">
        <lane id=":209_2_0" index="0" speed="13.90" length="6.94" shape="1823.93,1308.91 1828.47,1314.16"/>
    </edge>
    <edge id=":209_3" function="internal">
        <lane id=":209_3_0" index="0" speed="13.90" length="1.91" shape="1823.93,1308.91 1824.79,1310.20 1824.84,1310.56"/>
    </edge>
    <edge id=":209_4" function="internal">
        <lane id=":209_4_0" index="0" speed="13.90" length="3.49" shape="1824.84,1310.56 1824.93,1311.35 1824.35,1312.34 1823.04,1313.17"/>
    </edge>
    <edge id=":213_0" function="internal">
        <lane id=":213_0_0" index="0" speed="13.90" length="18.13" shape="1817.49,1253.87 1822.93,1256.31 1827.17,1258.29 1830.78,1259.66 1834.35,1260.30"/>
    </edge>
    <edge id=":213_1" function="internal">
        <lane id=":213_1_0" index="0" speed="13.90" length="18.82" shape="1815.60,1261.02 1819.85,1260.30 1824.91,1260.04 1829.99,1260.10 1834.35,1260.30"/>
    </edge>
    <edge id=":217_0" function="internal">
        <lane id=":217_0_0" index="0" speed="13.90" length="13.14" shape="1840.74,1322.81 1841.02,1326.22 1841.96,1329.15 1843.48,1331.90 1845.49,1334.75"/>
    </edge>
    <edge id=":217_1" function="internal">
        <lane id=":217_1_0" index="0" speed="13.90" length="12.82" shape="1837.36,1324.84 1845.49,1334.75"/>
    </edge>
    <edge id=":218_0" function="internal">
        <lane id=":218_0_0" index="0" speed="13.90" length="4.82" shape="2038.17,1569.03 2038.37,1570.50 2038.02,1571.36 2037.13,1571.59 2035.69,1571.21"/>
    </edge>
    <edge id=":22_0" function="internal">
        <lane id=":22_0_0" index="0" speed="13.90" length="1.45" shape="1715.24,2291.71 1714.83,2291.59 1714.55,2291.48 1714.29,2291.34 1713.92,2291.11"/>
    </edge>
    <edge id=":22_1" function="internal">