<?xml version="1.0" encoding="UTF-8"?>
<routes>

    <vType vClass="car" 	accel="1.0"  decel="5.0"  id="Car"  length="3.0" maxSpeed="100.0" sigma="0.0" />
	  <vType vClass="bicycle" accel="0.1"  decel="2.0"  id="Bike" length="1.0" maxSpeed="5.0" 	sigma="0.0" />






<flows>

  <flow id="bike" type="Bike"  from="-gneE15" to="gneE11" begin="0.00" period="5" number="400" color="1,1,1"/>
  <flow id="bike2" type="Bike"  from="-gneE15" to="-340675955" begin="0.00" period="5" number="400" color="1,1,1"/>




    <flow id="flow0" type="Car"  from="199239120" to="340675956" begin="0.00" period="5" number="400" color="1,0,0"/>
    <flow id="flow1" type="Car"  from="199239120" to="186713411" begin="0.00" period="5" number="400" color="0,1,0"/>

    <flow id="flow2" type="Car"  from="186713412" to="-142692918" begin="0.00" period="15" number="400" color="0,0,1"/>
    <flow id="flow3" type="Car"  from="186713412" to="340675956" begin="0.00" period="5" number="400" color="0,1,1"/>

    <flow id="flow4" type="Car"  from="-340675956" to="-142692918" begin="0.00" period="5" number="400" color="1,0,1"/>
    <flow id="flow5" type="Car"  from="-340675956" to="186713411" begin="0.00" period="5" number="400" color="1,1,1"/>



</flows>


<!--


	<flow id="flow0" type="Car"  route="route0" begin="0.00" period="1" number="400" color="1,0,0"/>



	<flow id="flow2" type="Car"  route="route1" begin="0.00" period="5" number="400" color="0,1,0"/>





	<vehicle depart="00" id="1" route="route0" type="Car" />
	<vehicle depart="10" id="2" route="route1" type="Car" />
	<vehicle depart="20" id="3" route="route0" type="Car" />

	<vehicle depart="25" id="4" route="route0" type="Bike" />
	<vehicle depart="25" id="5" route="route0" type="Car" />
	<vehicle depart="25" id="6" route="route1" type="Bike" />
	<flow id="flow3" type="Ignoring"  route="route1" begin="0.00" period="5" number="400" color="0,1,0"/>
-->
</routes>
