<?xml version="1.0" encoding="UTF-8"?>

<!-- generated on Mi 03 Mai 2017 17:35:05 CEST by Netedit Version 0.29.0
<?xml version="1.0" encoding="UTF-8"?>

<configuration xmlns:xsi="http://www.w3.org/2001/XMLSchema-instance" xsi:noNamespaceSchemaLocation="http://sumo.dlr.de/xsd/netedit.exeConfiguration.xsd">

    <input>
        <sumo-net-file value="/home/chris/Documents/GIT/SUMO-MAP/map.net.xml"/>
    </input>

    <output>
        <output-file value="/home/chris/Documents/GIT/SUMO-MAP/map.net.xml"/>
    </output>

    <processing>
        <no-turnarounds value="true"/>
        <offset.disable-normalization value="true"/>
        <lefthand value="false"/>
        <junctions.corner-detail value="0"/>
    </processing>

</configuration>
-->

<net version="0.27" xmlns:xsi="http://www.w3.org/2001/XMLSchema-instance" xsi:noNamespaceSchemaLocation="http://sumo.dlr.de/xsd/net_file.xsd">

    <location netOffset="-565439.62,-5934035.06" convBoundary="105.29,67.49,1964.63,1551.39" origBoundary="9.99,53.55,10.02,53.58" projParameter="+proj=utm +zone=32 +ellps=WGS84 +datum=WGS84 +units=m +no_defs"/>

    <edge id=":1_0" function="internal">
        <lane id=":1_0_0" index="0" speed="13.90" length="2.29" shape="1938.54,1440.53 1937.43,1441.51 1936.64,1441.68"/>
    </edge>
    <edge id=":1_3" function="internal">
        <lane id=":1_3_0" index="0" speed="13.90" length="2.53" shape="1936.64,1441.68 1936.53,1441.70 1935.83,1441.09 1935.35,1439.68"/>
    </edge>
    <edge id=":1_1" function="internal">
        <lane id=":1_1_0" index="0" speed="13.90" length="6.07" shape="1931.23,1440.59 1932.59,1441.86 1933.73,1442.14 1934.65,1441.41 1935.35,1439.68"/>
    </edge>
    <edge id=":1_2" function="internal">
        <lane id=":1_2_0" index="0" speed="13.90" length="8.24" shape="1935.19,1447.87 1935.29,1445.43 1935.07,1443.74 1934.96,1442.06 1935.35,1439.68"/>
    </edge>
    <edge id=":102_0" function="internal">
        <lane id=":102_0_0" index="0" speed="13.90" length="6.09" shape="1064.00,671.41 1062.95,673.03 1062.53,674.47 1062.76,675.72 1063.63,676.79"/>
    </edge>
    <edge id=":102_1" function="internal">
        <lane id=":102_1_0" index="0" speed="13.90" length="9.74" shape="1064.00,671.41 1057.64,678.89"/>
        <lane id=":102_1_1" index="1" speed="13.90" length="9.74" shape="1061.43,669.34 1055.17,676.69"/>
    </edge>
    <edge id=":102_3" function="internal">
        <lane id=":102_3_0" index="0" speed="13.90" length="8.21" shape="1061.43,669.34 1059.53,671.35 1057.75,672.53 1056.09,672.86 1054.55,672.36"/>
    </edge>
    <edge id=":102_4" function="internal">
        <lane id=":102_4_0" index="0" speed="13.90" length="10.35" shape="1056.30,669.56 1058.69,671.36 1060.11,672.98 1061.45,674.70 1063.63,676.79"/>
    </edge>
    <edge id=":102_5" function="internal">
        <lane id=":102_5_0" index="0" speed="13.90" length="8.36" shape="1056.30,669.56 1057.49,670.79 1057.70,672.39 1056.93,674.36 1055.17,676.69"/>
    </edge>
    <edge id=":104_0" function="internal">
        <lane id=":104_0_0" index="0" speed="13.89" length="3.02" shape="358.07,768.34 353.88,766.86"/>
        <lane id=":104_0_1" index="1" speed="13.89" length="3.02" shape="358.07,768.34 357.71,767.58 357.48,767.05 357.27,766.51 356.98,765.73"/>
        <lane id=":104_0_2" index="2" speed="13.89" length="3.02" shape="361.05,766.94 360.73,766.25 360.53,765.78 360.34,765.30 360.08,764.59"/>
        <lane id=":104_0_3" index="3" speed="13.89" length="3.02" shape="364.04,765.53 363.76,764.93 363.57,764.51 363.41,764.08 363.18,763.45"/>
    </edge>
    <edge id=":128_0" function="internal">
        <lane id=":128_0_0" index="0" speed="13.90" length="0.29" shape="1879.44,1266.55 1879.22,1266.75"/>
    </edge>
    <edge id=":129_0" function="internal">
        <lane id=":129_0_0" index="0" speed="13.90" length="10.46" shape="1851.94,1292.93 1849.91,1295.15 1848.79,1297.00 1847.90,1299.04 1846.58,1301.80"/>
    </edge>
    <edge id=":129_1" function="internal">
        <lane id=":129_1_0" index="0" speed="13.90" length="10.44" shape="1851.94,1292.93 1849.69,1294.96 1847.97,1296.30 1846.18,1297.56 1843.71,1299.34"/>
    </edge>
    <edge id=":131_0" function="internal">
        <lane id=":131_0_0" index="0" speed="13.90" length="16.85" shape="1733.27,1213.78 1722.91,1200.64"/>
        <lane id=":131_0_1" index="1" speed="13.90" length="16.85" shape="1736.00,1211.93 1725.51,1198.60"/>
    </edge>
    <edge id=":131_2" function="internal">
        <lane id=":131_2_0" index="0" speed="13.90" length="15.91" shape="1739.69,1190.61 1740.50,1194.00 1741.71,1197.16 1743.59,1200.60 1746.42,1204.86"/>
    </edge>
    <edge id=":131_3" function="internal">
        <lane id=":131_3_0" index="0" speed="13.90" length="17.52" shape="1735.88,1190.43 1746.42,1204.86"/>
        <lane id=":131_3_1" index="1" speed="13.90" length="17.52" shape="1733.29,1192.47 1743.69,1206.71"/>
        <lane id=":131_3_2" index="2" speed="13.90" length="17.52" shape="1730.69,1194.52 1740.96,1208.57"/>
        <lane id=":131_3_3" index="3" speed="13.90" length="17.52" shape="1728.10,1196.56 1738.23,1210.42"/>
    </edge>
    <edge id=":133_0" function="internal">
        <lane id=":133_0_0" index="0" speed="13.90" length="0.91" shape="1955.80,1296.68 1956.00,1296.86 1956.12,1297.00 1956.20,1297.17 1956.28,1297.42"/>
    </edge>
    <edge id=":144_0" function="internal">
        <lane id=":144_0_0" index="0" speed="13.90" length="9.59" shape="419.54,135.30 412.72,142.05"/>
    </edge>
    <edge id=":144_1" function="internal">
        <lane id=":144_1_0" index="0" speed="13.90" length="4.63" shape="419.54,135.30 416.76,137.13 415.47,136.94"/>
    </edge>
    <edge id=":144_5" function="internal">
        <lane id=":144_5_0" index="0" speed="13.90" length="9.33" shape="415.47,136.94 414.38,136.77 412.41,134.21 410.84,129.46"/>
    </edge>
    <edge id=":144_2" function="internal">
        <lane id=":144_2_0" index="0" speed="13.90" length="10.63" shape="410.35,139.75 411.26,138.21 411.64,135.98 411.50,133.06 410.84,129.46"/>
    </edge>
    <edge id=":144_3" function="internal">
        <lane id=":144_3_0" index="0" speed="13.90" length="10.04" shape="410.35,139.75 412.02,137.31 412.57,135.17 413.15,133.03 414.92,130.59"/>
        <lane id=":144_3_1" index="1" speed="13.90" length="10.04" shape="410.35,139.75 417.23,132.94"/>
    </edge>
    <edge id=":148_0" function="internal">
        <lane id=":148_0_0" index="0" speed="13.90" length="4.82" shape="527.59,973.55 527.58,975.03 527.11,975.83 526.20,975.94 524.83,975.35"/>
    </edge>
    <edge id=":149_0" function="internal">
        <lane id=":149_0_0" index="0" speed="13.89" length="6.00" shape="472.15,894.73 471.51,893.79 470.98,893.20 470.31,892.77 469.28,892.28"/>
        <lane id=":149_0_1" index="1" speed="13.89" length="6.00" shape="472.15,894.73 470.64,889.27"/>
        <lane id=":149_0_2" index="2" speed="13.89" length="6.00" shape="472.15,894.73 471.99,886.26"/>
    </edge>
    <edge id=":149_3" function="internal">
        <lane id=":149_3_0" index="0" speed="13.90" length="2.91" shape="472.15,894.73 472.17,893.25 472.63,892.45 473.13,892.39"/>
    </edge>
    <edge id=":149_5" function="internal">
        <lane id=":149_5_0" index="0" speed="13.90" length="1.91" shape="473.13,892.39 473.55,892.34 474.92,892.93"/>
    </edge>
    <edge id=":149_4" function="internal">
        <lane id=":149_4_0" index="0" speed="13.89" length="10.58" shape="473.35,883.25 475.10,885.04 474.80,887.31 474.17,889.97 474.92,892.93"/>
    </edge>
    <edge id=":152_0" function="internal">
        <lane id=":152_0_0" index="0" speed="13.89" length="9.76" shape="1072.01,721.36 1070.21,720.15 1068.72,719.77 1067.08,719.79 1064.80,719.81"/>
        <lane id=":152_0_1" index="1" speed="13.89" length="9.76" shape="1074.11,718.82 1071.81,717.22 1069.94,716.62 1067.86,716.54 1064.95,716.51"/>
        <lane id=":152_0_2" index="2" speed="13.89" length="9.76" shape="1076.21,716.27 1073.41,714.28 1071.15,713.47 1068.64,713.29 1065.10,713.22"/>
    </edge>
    <edge id=":152_3" function="internal">
        <lane id=":152_3_0" index="0" speed="13.90" length="12.14" shape="1071.70,705.03 1074.40,706.86 1076.90,707.05 1079.51,707.13 1082.51,708.63"/>
        <lane id=":152_3_1" index="1" speed="13.90" length="12.14" shape="1069.27,707.27 1072.05,709.18 1074.63,709.44 1077.31,709.59 1080.41,711.18"/>
        <lane id=":152_3_2" index="2" speed="13.90" length="12.14" shape="1066.84,709.50 1069.71,711.51 1072.36,711.84 1075.11,712.06 1078.31,713.73"/>
    </edge>
    <edge id=":154_0" function="internal">
        <lane id=":154_0_0" index="0" allow="bicycle" speed="13.89" length="11.26" shape="976.88,637.38 980.79,639.71 983.75,640.88 985.74,640.89 986.76,639.75"/>
    </edge>
    <edge id=":154_1" function="internal">
        <lane id=":154_1_0" index="0" speed="13.90" length="17.85" shape="976.88,637.38 991.79,647.31"/>
        <lane id=":154_1_1" index="1" speed="13.90" length="17.85" shape="975.06,640.14 989.93,650.04"/>
        <lane id=":154_1_2" index="2" speed="13.90" length="17.85" shape="973.24,642.89 988.07,652.77"/>
        <lane id=":154_1_3" index="3" speed="13.90" length="17.85" shape="971.42,645.64 986.22,655.50"/>
    </edge>
    <edge id=":154_5" function="internal">
        <lane id=":154_5_0" index="0" allow="bicycle" speed="13.89" length="19.97" shape="970.53,649.61 976.71,648.23 981.47,646.13 984.82,643.30 986.76,639.75"/>
    </edge>
    <edge id=":154_6" function="internal">
        <lane id=":154_6_0" index="0" speed="13.90" length="6.65" shape="977.32,658.27 980.53,656.59 983.08,655.56 983.35,655.51"/>
    </edge>
    <edge id=":154_7" function="internal">
        <lane id=":154_7_0" index="0" speed="13.90" length="2.93" shape="983.35,655.51 984.97,655.20 986.22,655.50"/>
    </edge>
    <edge id=":164_0" function="internal">
        <lane id=":164_0_0" index="0" speed="13.90" length="13.38" shape="908.33,686.18 913.45,684.70 917.07,683.24 919.21,681.80 919.86,680.37"/>
    </edge>
    <edge id=":164_1" function="internal">
        <lane id=":164_1_0" index="0" speed="13.90" length="16.30" shape="909.14,689.38 913.60,688.04 916.53,686.75 919.38,685.24 923.61,683.22"/>
        <lane id=":164_1_1" index="1" speed="13.90" length="16.30" shape="909.95,692.58 914.57,691.20 917.60,689.88 920.55,688.32 924.93,686.25"/>
        <lane id=":164_1_2" index="2" speed="13.90" length="16.30" shape="910.77,695.77 915.54,694.36 918.67,693.01 921.73,691.41 926.25,689.27"/>
    </edge>
    <edge id=":177_0" function="internal">
        <lane id=":177_0_0" index="0" speed="13.90" length="6.30" shape="1102.74,741.59 1100.95,741.00 1099.40,741.48 1097.88,741.93 1096.15,741.27"/>
        <lane id=":177_0_1" index="1" speed="13.90" length="6.30" shape="1104.71,738.94 1102.96,738.38 1101.44,738.88 1099.94,739.36 1098.25,738.73"/>
        <lane id=":177_0_2" index="2" speed="13.90" length="6.30" shape="1104.71,738.94 1100.35,736.18"/>
    </edge>
    <edge id=":177_3" function="internal">
        <lane id=":177_3_0" index="0" speed="13.90" length="27.44" shape="1104.71,738.94 1097.20,732.55 1095.69,728.99 1100.17,728.28 1109.16,730.10"/>
    </edge>
    <edge id=":177_7" function="internal">
        <lane id=":177_7_0" index="0" speed="13.90" length="1.51" shape="1109.16,730.10 1110.64,730.40"/>
    </edge>
    <edge id=":177_4" function="internal">
        <lane id=":177_4_0" index="0" speed="13.90" length="4.47" shape="1106.65,728.55 1107.69,729.35 1108.48,729.79 1109.36,730.07 1110.64,730.40"/>
    </edge>
    <edge id=":177_5" function="internal">
        <lane id=":177_5_0" index="0" speed="13.90" length="5.77" shape="1106.65,728.55 1107.54,729.85 1107.62,731.14 1107.70,732.40 1108.65,733.64"/>
        <lane id=":177_5_1" index="1" speed="13.90" length="5.77" shape="1104.55,731.09 1105.48,732.42 1105.58,733.73 1105.70,735.02 1106.68,736.29"/>
    </edge>
    <edge id=":195_0" function="internal">
        <lane id=":195_0_0" index="0" speed="13.89" length="4.01" shape="530.41,809.10 528.92,813.33"/>
        <lane id=":195_0_1" index="1" speed="13.89" length="4.01" shape="529.15,806.06 527.63,810.29"/>
        <lane id=":195_0_2" index="2" speed="13.89" length="4.01" shape="529.15,806.06 526.34,807.26"/>
    </edge>
    <edge id=":195_3" function="internal">
        <lane id=":195_3_0" index="0" speed="13.89" length="3.11" shape="523.75,801.18 526.63,799.97"/>
        <lane id=":195_3_1" index="1" speed="13.89" length="3.11" shape="525.04,804.22 527.90,803.02"/>
    </edge>
    <edge id=":209_0" function="internal">
        <lane id=":209_0_0" index="0" speed="13.90" length="5.12" shape="1829.08,1309.82 1828.03,1310.78 1827.58,1311.82 1827.72,1312.95 1828.47,1314.16"/>
    </edge>
    <edge id=":209_1" function="internal">
        <lane id=":209_1_0" index="0" speed="13.90" length="6.93" shape="1829.08,1309.82 1827.37,1310.96 1826.17,1311.69 1824.91,1312.32 1823.04,1313.17"/>
    </edge>
    <edge id=":209_2" function="internal">
        <lane id=":209_2_0" index="0" speed="13.90" length="6.94" shape="1823.93,1308.91 1828.47,1314.16"/>
    </edge>
    <edge id=":209_3" function="internal">
        <lane id=":209_3_0" index="0" speed="13.90" length="1.91" shape="1823.93,1308.91 1824.79,1310.20 1824.84,1310.56"/>
    </edge>
    <edge id=":209_4" function="internal">
        <lane id=":209_4_0" index="0" speed="13.90" length="3.49" shape="1824.84,1310.56 1824.93,1311.35 1824.35,1312.34 1823.04,1313.17"/>
    </edge>
    <edge id=":213_0" function="internal">
        <lane id=":213_0_0" index="0" speed="13.90" length="18.13" shape="1817.49,1253.87 1822.93,1256.31 1827.17,1258.29 1830.78,1259.66 1834.35,1260.30"/>
    </edge>
    <edge id=":213_1" function="internal">
        <lane id=":213_1_0" index="0" speed="13.90" length="18.82" shape="1815.60,1261.02 1819.85,1260.30 1824.91,1260.04 1829.99,1260.10 1834.35,1260.30"/>
    </edge>
    <edge id=":217_0" function="internal">
        <lane id=":217_0_0" index="0" speed="13.90" length="13.14" shape="1840.74,1322.81 1841.02,1326.22 1841.96,1329.15 1843.48,1331.90 1845.49,1334.75"/>
    </edge>
    <edge id=":217_1" function="internal">
        <lane id=":217_1_0" index="0" speed="13.90" length="12.82" shape="1837.36,1324.84 1845.49,1334.75"/>
    </edge>
    <edge id=":223_0" function="internal">
        <lane id=":223_0_0" index="0" speed="13.90" length="4.82" shape="1001.94,639.54 1001.32,638.19 1001.41,637.27 1002.20,636.79 1003.68,636.74"/>
    </edge>
    <edge id=":238_0" function="internal">
        <lane id=":238_0_0" index="0" speed="13.90" length="9.87" shape="1562.05,1037.84 1559.48,1036.62 1557.52,1036.24 1555.53,1035.92 1552.84,1034.93"/>
        <lane id=":238_0_1" index="1" speed="13.90" length="9.87" shape="1563.76,1035.02 1561.12,1033.76 1559.11,1033.34 1557.05,1033.00 1554.28,1031.96"/>
    </edge>
    <edge id=":238_2" function="internal">
        <lane id=":238_2_0" index="0" speed="13.90" length="10.05" shape="1559.21,1023.28 1567.19,1029.38"/>
    </edge>
    <edge id=":238_3" function="internal">
        <lane id=":238_3_0" index="0" speed="13.90" length="61.80" shape="1559.21,1023.28 1577.57,1037.05 1582.87,1043.09 1575.11,1041.40 1554.28,1031.96"/>
    </edge>
    <edge id=":238_4" function="internal">
        <lane id=":238_4_0" index="0" speed="13.90" length="10.48" shape="1557.17,1026.03 1560.10,1027.14 1562.27,1027.54 1564.39,1028.02 1567.19,1029.38"/>
        <lane id=":238_4_1" index="1" speed="13.90" length="10.48" shape="1555.72,1029.00 1558.58,1030.07 1560.69,1030.44 1562.75,1030.89 1565.48,1032.20"/>
    </edge>
    <edge id=":278_0" function="internal">
        <lane id=":278_0_0" index="0" speed="13.90" length="0.31" shape="703.43,734.01 703.13,734.14"/>
        <lane id=":278_0_1" index="1" speed="13.90" length="0.31" shape="702.12,730.99 701.84,731.11"/>
    </edge>
    <edge id=":278_2" function="internal">
        <lane id=":278_2_0" index="0" speed="13.90" length="0.28" shape="699.25,725.04 699.50,724.93"/>
        <lane id=":278_2_1" index="1" speed="13.90" length="0.28" shape="700.55,728.07 700.81,727.96"/>
    </edge>
    <edge id=":279_0" function="internal">
        <lane id=":279_0_0" index="0" speed="13.90" length="2.77" shape="827.59,701.84 824.88,701.83"/>
        <lane id=":279_0_1" index="1" speed="13.90" length="2.77" shape="827.66,698.54 824.82,698.53"/>
    </edge>
    <edge id=":279_2" function="internal">
        <lane id=":279_2_0" index="0" speed="13.90" length="3.53" shape="824.72,691.93 827.87,688.64"/>
        <lane id=":279_2_1" index="1" speed="13.90" length="3.53" shape="824.72,691.93 827.80,691.94"/>
        <lane id=":279_2_2" index="2" speed="13.90" length="3.53" shape="824.77,695.23 827.73,695.24"/>
    </edge>
    <edge id=":28_0" function="internal">
        <lane id=":28_0_0" index="0" speed="13.90" length="5.32" shape="1643.73,1101.29 1642.77,1096.39"/>
        <lane id=":28_0_1" index="1" speed="13.90" length="5.32" shape="1646.29,1099.21 1645.65,1097.76 1645.75,1096.47 1645.79,1095.24 1644.98,1093.94"/>
    </edge>
    <edge id=":28_2" function="internal">
        <lane id=":28_2_0" index="0" speed="13.90" length="27.31" shape="1646.29,1099.21 1641.08,1091.13 1641.34,1086.48 1647.08,1085.26 1654.10,1086.65"/>
    </edge>
    <edge id=":28_8" function="internal">
        <lane id=":28_8_0" index="0" speed="13.90" length="4.28" shape="1654.10,1086.65 1658.30,1087.48"/>
    </edge>
    <edge id=":28_3" function="internal">
        <lane id=":28_3_0" index="0" speed="13.90" length="9.68" shape="1649.40,1089.04 1651.59,1089.90 1653.48,1088.94 1655.55,1087.63 1658.30,1087.48"/>
    </edge>
    <edge id=":28_4" function="internal">
        <lane id=":28_4_0" index="0" speed="13.90" length="6.66" shape="1649.40,1089.04 1651.34,1089.97 1653.13,1089.82 1654.83,1089.75 1656.54,1090.90"/>
        <lane id=":28_4_1" index="1" speed="13.90" length="6.66" shape="1647.19,1091.49 1649.03,1092.33 1650.73,1092.10 1652.36,1091.94 1653.98,1092.98"/>
        <lane id=":28_4_2" index="2" speed="13.90" length="6.66" shape="1647.19,1091.49 1648.47,1092.53 1649.42,1093.16 1650.31,1093.86 1651.42,1095.06"/>
        <lane id=":28_4_3" index="3" speed="13.90" length="6.66" shape="1647.19,1091.49 1648.11,1092.88 1648.14,1094.20 1648.12,1095.57 1648.85,1097.14"/>
    </edge>
    <edge id=":280_0" function="internal">
        <lane id=":280_0_0" index="0" speed="13.90" length="0.26" shape="631.74,764.58 631.52,764.67"/>
        <lane id=":280_0_1" index="1" speed="13.90" length="0.26" shape="630.44,761.54 630.19,761.65"/>
    </edge>
    <edge id=":280_2" function="internal">
        <lane id=":280_2_0" index="0" speed="13.90" length="0.33" shape="627.53,755.61 627.85,755.47"/>
        <lane id=":280_2_1" index="1" speed="13.90" length="0.33" shape="628.86,758.63 629.15,758.50"/>
    </edge>
    <edge id=":282_0" function="internal">
        <lane id=":282_0_0" index="0" speed="13.90" length="1.71" shape="656.15,645.60 655.59,645.95 655.20,646.18 654.80,646.37 654.20,646.64"/>
        <lane id=":282_0_1" index="1" speed="13.90" length="1.71" shape="654.38,642.82 653.95,643.09 653.64,643.26 653.33,643.42 652.87,643.62"/>
        <lane id=":282_0_2" index="2" speed="13.90" length="1.71" shape="652.61,640.03 652.30,640.22 652.09,640.35 651.86,640.46 651.53,640.61"/>
    </edge>
    <edge id=":282_3" function="internal">
        <lane id=":282_3_0" index="0" speed="13.90" length="0.48" shape="648.86,634.57 648.92,634.54 648.97,634.52 649.01,634.50 649.07,634.46"/>
        <lane id=":282_3_1" index="1" speed="13.90" length="0.48" shape="650.20,637.59 650.39,637.50 650.53,637.44 650.65,637.36 650.84,637.25"/>
    </edge>
    <edge id=":283_0" function="internal">
        <lane id=":283_0_0" index="0" speed="13.90" length="0.36" shape="599.67,670.79 599.22,670.98"/>
        <lane id=":283_0_1" index="1" speed="13.90" length="0.36" shape="598.33,667.77 598.01,667.91"/>
        <lane id=":283_0_2" index="2" speed="13.90" length="0.36" shape="597.00,664.75 596.79,664.84"/>
    </edge>
    <edge id=":283_3" function="internal">
        <lane id=":283_3_0" index="0" speed="13.90" length="0.10" shape="594.35,658.71 594.33,658.72"/>
        <lane id=":283_3_1" index="1" speed="13.90" length="0.10" shape="595.57,661.78 595.66,661.74"/>
    </edge>
    <edge id=":287_0" function="internal">
        <lane id=":287_0_0" index="0" speed="13.90" length="1.23" shape="515.14,703.21 514.70,703.37 514.40,703.47 514.09,703.56 513.63,703.67"/>
        <lane id=":287_0_1" index="1" speed="13.90" length="1.23" shape="514.00,700.11 513.65,700.24 513.42,700.32 513.18,700.38 512.83,700.47"/>
        <lane id=":287_0_2" index="2" speed="13.90" length="1.23" shape="512.85,697.02 512.61,697.11 512.44,697.16 512.27,697.21 512.02,697.28"/>
    </edge>
    <edge id=":287_3" function="internal">
        <lane id=":287_3_0" index="0" speed="13.90" length="0.35" shape="510.40,690.88 510.45,690.86 510.48,690.85 510.51,690.84 510.56,690.83"/>
        <lane id=":287_3_1" index="1" speed="13.90" length="0.35" shape="511.21,694.08 511.36,694.04 511.46,694.01 511.56,693.97 511.71,693.92"/>
    </edge>
    <edge id=":297_0" function="internal">
        <lane id=":297_0_0" index="0" speed="13.90" length="0.10" shape="1941.88,1427.93 1941.88,1427.93"/>
    </edge>
    <edge id=":297_1" function="internal">
        <lane id=":297_1_0" index="0" speed="13.90" length="2.41" shape="1941.88,1427.93 1940.77,1428.92 1939.87,1429.10"/>
    </edge>
    <edge id=":297_4" function="internal">
        <lane id=":297_4_0" index="0" speed="13.90" length="2.41" shape="1939.87,1429.10 1939.18,1428.49 1938.70,1427.09"/>
    </edge>
    <edge id=":297_2" function="internal">
        <lane id=":297_2_0" index="0" speed="13.90" length="0.10" shape="1938.70,1427.09 1938.70,1427.09"/>
    </edge>
    <edge id=":297_3" function="internal">
        <lane id=":297_3_0" index="0" speed="13.90" length="2.41" shape="1938.70,1427.09 1939.81,1426.10 1940.71,1425.92"/>
    </edge>
    <edge id=":297_5" function="internal">
        <lane id=":297_5_0" index="0" speed="13.90" length="2.41" shape="1940.71,1425.92 1941.41,1426.53 1941.88,1427.93"/>
    </edge>
    <edge id=":299_0" function="internal">
        <lane id=":299_0_0" index="0" speed="13.90" length="6.17" shape="1960.02,1314.62 1959.53,1312.92 1958.83,1311.90 1957.79,1311.08 1956.29,1310.01"/>
    </edge>
    <edge id=":299_1" function="internal">
        <lane id=":299_1_0" index="0" speed="13.90" length="2.18" shape="1960.02,1314.62 1960.59,1313.25 1961.14,1312.83"/>
    </edge>
    <edge id=":299_4" function="internal">
        <lane id=":299_4_0" index="0" speed="13.90" length="2.64" shape="1961.14,1312.83 1961.33,1312.69 1962.21,1312.93 1963.26,1313.99"/>
    </edge>
    <edge id=":299_2" function="internal">
        <lane id=":299_2_0" index="0" speed="13.90" length="7.41" shape="1959.50,1307.72 1960.48,1309.66 1961.55,1310.81 1962.54,1311.99 1963.26,1313.99"/>
    </edge>
    <edge id=":299_3" function="internal">
        <lane id=":299_3_0" index="0" speed="13.90" length="3.10" shape="1959.50,1307.72 1960.08,1310.24 1959.94,1310.74"/>
    </edge>
    <edge id=":299_5" function="internal">
        <lane id=":299_5_0" index="0" speed="13.90" length="4.59" shape="1959.94,1310.74 1959.74,1311.46 1958.48,1311.38 1956.29,1310.01"/>
    </edge>
    <edge id=":311_0" function="internal">
        <lane id=":311_0_0" index="0" speed="13.89" length="6.65" shape="901.24,627.01 892.55,625.60"/>
        <lane id=":311_0_1" index="1" speed="13.89" length="6.65" shape="903.77,624.89 895.53,624.18"/>
        <lane id=":311_0_2" index="2" speed="13.89" length="6.65" shape="906.30,622.78 898.51,622.76"/>
        <lane id=":311_0_3" index="3" speed="13.89" length="6.65" shape="906.30,622.78 901.49,621.35"/>
        <lane id=":311_0_4" index="4" speed="13.89" length="6.65" shape="906.30,622.78 905.66,622.00 905.25,621.44 904.91,620.84 904.47,619.93"/>
    </edge>
    <edge id=":326_0" function="internal">
        <lane id=":326_0_0" index="0" speed="13.90" length="3.34" shape="1782.07,1256.71 1785.37,1257.55"/>
        <lane id=":326_0_1" index="1" speed="13.90" length="3.34" shape="1782.07,1256.71 1782.58,1257.51 1782.58,1258.28 1782.57,1259.05 1783.05,1259.89"/>
        <lane id=":326_0_2" index="2" speed="13.90" length="3.34" shape="1779.88,1259.19 1780.73,1262.23"/>
    </edge>
    <edge id=":328_0" function="internal">
        <lane id=":328_0_0" index="0" speed="13.90" length="5.96" shape="1771.66,1237.42 1772.47,1238.19 1773.38,1238.71 1774.40,1238.97 1775.52,1238.97"/>
        <lane id=":328_0_1" index="1" speed="13.90" length="5.96" shape="1769.13,1239.53 1770.54,1240.89 1772.13,1241.80 1773.91,1242.25 1775.87,1242.26"/>
    </edge>
    <edge id=":328_2" function="internal">
        <lane id=":328_2_0" index="0" speed="13.90" length="8.58" shape="1766.59,1241.64 1768.54,1243.24 1770.33,1243.82 1772.06,1244.45 1773.83,1246.18"/>
        <lane id=":328_2_1" index="1" speed="13.90" length="8.58" shape="1764.06,1243.76 1765.95,1245.29 1767.70,1245.82 1769.40,1246.39 1771.11,1248.05"/>
    </edge>
    <edge id=":345_0" function="internal">
        <lane id=":345_0_0" index="0" speed="13.90" length="1.71" shape="1885.63,1248.78 1884.80,1247.61 1884.75,1247.34"/>
    </edge>
    <edge id=":345_2" function="internal">
        <lane id=":345_2_0" index="0" speed="13.90" length="3.44" shape="1884.75,1247.34 1884.58,1246.49 1884.98,1245.43 1886.00,1244.41"/>
    </edge>
    <edge id=":345_1" function="internal">
        <lane id=":345_1_0" index="0" speed="13.90" length="6.22" shape="1881.01,1248.13 1886.00,1244.41"/>
    </edge>
    <edge id=":349_0" function="internal">
        <lane id=":349_0_0" index="0" speed="13.90" length="0.10" shape="1949.33,1304.71 1949.33,1304.71"/>
    </edge>
    <edge id=":38_0" function="internal">
        <lane id=":38_0_0" index="0" speed="13.90" length="12.26" shape="1011.60,660.81 1014.48,662.85 1016.43,664.29 1018.44,665.62 1021.51,667.33"/>
        <lane id=":38_0_1" index="1" speed="13.90" length="12.26" shape="1009.75,663.54 1012.72,665.64 1014.73,667.12 1016.81,668.49 1019.98,670.26"/>
        <lane id=":38_0_2" index="2" speed="13.90" length="12.26" shape="1007.89,666.26 1010.96,668.43 1013.03,669.96 1015.18,671.37 1018.45,673.18"/>
    </edge>
    <edge id=":38_3" function="internal">
        <lane id=":38_3_0" index="0" speed="13.89" length="9.98" shape="1007.89,666.26 1010.83,668.55 1012.98,670.85 1014.33,673.17 1014.89,675.51"/>
        <lane id=":38_3_1" index="1" speed="13.89" length="9.98" shape="1007.89,666.26 1009.32,667.67 1010.42,669.72 1011.18,672.41 1011.60,675.73"/>
        <lane id=":38_3_2" index="2" speed="13.89" length="9.98" shape="1006.03,668.99 1006.88,669.91 1007.54,671.37 1008.02,673.39 1008.30,675.96"/>
    </edge>
    <edge id=":39_0" function="internal">
        <lane id=":39_0_0" index="0" allow="bicycle" speed="13.89" length="11.17" shape="1055.43,681.37 1055.15,682.66 1056.15,684.45 1058.45,686.75 1062.03,689.56"/>
    </edge>
    <edge id=":39_1" function="internal">
        <lane id=":39_1_0" index="0" speed="13.90" length="12.92" shape="1055.43,681.37 1054.71,683.20 1055.26,685.66 1057.08,688.76 1060.17,692.49"/>
    </edge>
    <edge id=":39_2" function="internal">
        <lane id=":39_2_0" index="0" speed="13.89" length="16.86" shape="1055.43,681.37 1053.14,685.49 1053.02,689.10 1052.97,692.77 1050.88,697.07"/>
        <lane id=":39_2_1" index="1" speed="13.89" length="16.86" shape="1052.96,679.17 1050.64,683.34 1050.49,686.98 1050.42,690.68 1048.30,695.02"/>
    </edge>
    <edge id=":39_4" function="internal">
        <lane id=":39_4_0" index="0" allow="bicycle" speed="13.89" length="18.64" shape="1048.43,677.14 1050.62,680.68 1054.28,684.03 1058.41,687.05 1062.03,689.56"/>
    </edge>
    <edge id=":39_5" function="internal">
        <lane id=":39_5_0" index="0" speed="13.89" length="20.11" shape="1048.43,677.14 1049.58,680.87 1051.13,684.97 1053.66,689.55 1057.74,694.72"/>
    </edge>
    <edge id=":39_6" function="internal">
        <lane id=":39_6_0" index="0" speed="13.89" length="18.50" shape="1048.43,677.14 1049.93,683.00 1050.40,687.93 1049.86,691.94 1048.30,695.02"/>
    </edge>
    <edge id=":39_7" function="internal">
        <lane id=":39_7_0" index="0" allow="bicycle" speed="13.89" length="19.40" shape="1045.29,679.77 1050.96,682.79 1055.36,685.25 1058.91,687.42 1062.03,689.56"/>
    </edge>
    <edge id=":39_8" function="internal">
        <lane id=":39_8_0" index="0" speed="13.90" length="18.66" shape="1043.76,682.70 1048.12,685.77 1050.25,688.89 1052.03,692.48 1055.31,696.95"/>
    </edge>
    <edge id=":39_9" function="internal">
        <lane id=":39_9_0" index="0" speed="13.89" length="9.56" shape="1042.23,685.62 1044.91,687.37 1046.39,689.18 1046.65,691.04 1045.71,692.97"/>
    </edge>
    <edge id=":399_0" function="internal">
        <lane id=":399_0_0" index="0" speed="13.90" length="5.42" shape="900.26,704.81 898.78,704.43 897.79,704.05 896.78,703.76 895.28,703.61"/>
        <lane id=":399_0_1" index="1" speed="13.90" length="5.42" shape="900.90,701.58 899.26,701.16 898.16,700.77 897.04,700.47 895.38,700.31"/>
    </edge>
    <edge id=":399_2" function="internal">
        <lane id=":399_2_0" index="0" speed="13.90" length="5.01" shape="895.67,690.42 896.76,690.14 897.34,689.45 897.92,688.67 898.98,688.14"/>
        <lane id=":399_2_1" index="1" speed="13.90" length="5.01" shape="895.57,693.72 896.87,693.44 897.61,692.74 898.35,691.95 899.62,691.38"/>
        <lane id=":399_2_2" index="2" speed="13.90" length="5.01" shape="895.47,697.01 896.98,696.75 897.89,696.04 898.78,695.22 900.26,694.62"/>
        <lane id=":399_2_3" index="3" speed="13.90" length="5.01" shape="895.47,697.01 897.10,697.26 898.21,697.67 899.30,697.96 900.90,697.86"/>
    </edge>
    <edge id=":401_0" function="internal">