<?xml version="1.0" encoding="UTF-8"?>

<!-- generated on Di 25 Apr 2017 19:48:17 CEST by Netedit Version 0.25.0
<?xml version="1.0" encoding="UTF-8"?>

<configuration xmlns:xsi="http://www.w3.org/2001/XMLSchema-instance" xsi:noNamespaceSchemaLocation="http://sumo.dlr.de/xsd/netedit.exeConfiguration.xsd">

    <input>
        <sumo-net-file value="/home/chris/Documents/GIT/SUMO-MAP/src/map-straßen.net.xml"/>
    </input>

    <output>
        <output-file value="/home/chris/Documents/GIT/SUMO-MAP/src/map-straßen.net.xml"/>
    </output>

    <processing>
        <no-turnarounds value="true"/>
        <offset.disable-normalization value="true"/>
        <lefthand value="false"/>
        <junctions.corner-detail value="0"/>
    </processing>

</configuration>
-->

<net version="0.25" xmlns:xsi="http://www.w3.org/2001/XMLSchema-instance" xsi:noNamespaceSchemaLocation="http://sumo.dlr.de/xsd/net_file.xsd">

    <location netOffset="-565439.62,-5934035.06" convBoundary="0.00,0.00,2124.70,2927.60" origBoundary="9.987769,53.551075,10.020109,53.577252" projParameter="+proj=utm +zone=32 +ellps=WGS84 +datum=WGS84 +units=m +no_defs"/>

    <edge id=":0_0" function="internal">
        <lane id=":0_0_0" index="0" speed="13.90" length="10.22" shape="1948.59,1482.27 1946.03,1480.71 1944.22,1479.63 1942.41,1478.55 1939.83,1477.02"/>
    </edge>
    <edge id=":0_1" function="internal">
        <lane id=":0_1_0" index="0" speed="13.90" length="10.25" shape="1948.59,1482.27 1946.22,1480.52 1944.95,1478.88 1943.97,1476.94 1942.47,1474.28"/>
    </edge>
    <edge id=":1_0" function="internal">
        <lane id=":1_0_0" index="0" speed="13.90" length="9.61" shape="1938.54,1440.53 1937.88,1443.65 1937.70,1446.25 1937.99,1448.32 1938.76,1449.86"/>
    </edge>
    <edge id=":1_1" function="internal">
        <lane id=":1_1_0" index="0" speed="13.90" length="2.30" shape="1938.54,1440.53 1937.43,1441.51 1936.63,1441.68"/>
    </edge>
    <edge id=":1_6" function="internal">
        <lane id=":1_6_0" index="0" speed="13.90" length="2.52" shape="1936.63,1441.68 1936.53,1441.70 1935.83,1441.09 1935.35,1439.68"/>
    </edge>
    <edge id=":1_2" function="internal">
        <lane id=":1_2_0" index="0" speed="13.90" length="6.07" shape="1931.23,1440.59 1932.59,1441.86 1933.73,1442.14 1934.65,1441.41 1935.35,1439.68"/>
    </edge>
    <edge id=":1_3" function="internal">
        <lane id=":1_3_0" index="0" speed="13.90" length="11.94" shape="1931.23,1440.59 1933.32,1443.11 1935.03,1445.20 1936.73,1447.30 1938.76,1449.86"/>
    </edge>
    <edge id=":1_4" function="internal">
        <lane id=":1_4_0" index="0" speed="13.90" length="11.34" shape="1934.80,1450.96 1934.97,1447.79 1934.83,1445.28 1934.82,1442.79 1935.35,1439.68"/>
    </edge>
    <edge id=":1_5" function="internal">
        <lane id=":1_5_0" index="0" speed="13.90" length="3.53" shape="1934.80,1450.96 1935.30,1448.92 1936.13,1448.05 1936.35,1448.11"/>
    </edge>
    <edge id=":1_7" function="internal">
        <lane id=":1_7_0" index="0" speed="13.90" length="3.07" shape="1936.35,1448.11 1937.28,1448.37 1938.76,1449.86"/>
    </edge>
    <edge id=":100_0" function="internal">
        <lane id=":100_0_0" index="0" speed="13.90" length="8.02" shape="207.90,389.52 207.44,387.97 206.49,386.42 205.06,384.86 203.16,383.29"/>
    </edge>
    <edge id=":100_1" function="internal">
        <lane id=":100_1_0" index="0" speed="13.90" length="8.44" shape="207.90,389.52 206.68,381.17"/>
    </edge>
    <edge id=":100_2" function="internal">
        <lane id=":100_2_0" index="0" speed="13.90" length="2.41" shape="207.90,389.52 208.54,388.18 209.30,387.65"/>
    </edge>
    <edge id=":100_6" function="internal">
        <lane id=":100_6_0" index="0" speed="13.90" length="2.41" shape="209.30,387.65 210.17,387.94 211.17,389.04"/>
    </edge>
    <edge id=":100_3" function="internal">
        <lane id=":100_3_0" index="0" speed="13.90" length="8.45" shape="209.94,380.69 211.17,389.04"/>
    </edge>
    <edge id=":100_4" function="internal">
        <lane id=":100_4_0" index="0" speed="13.90" length="5.15" shape="209.94,380.69 209.98,384.03 208.93,385.50"/>
    </edge>
    <edge id=":100_5" function="internal">
        <lane id=":100_5_0" index="0" speed="13.90" length="2.41" shape="209.94,380.69 209.30,382.03 208.55,382.56"/>
    </edge>
    <edge id=":100_7" function="internal">
        <lane id=":100_7_0" index="0" speed="13.90" length="6.39" shape="208.93,385.50 208.87,385.58 206.59,385.33 203.16,383.29"/>
    </edge>
    <edge id=":100_8" function="internal">
        <lane id=":100_8_0" index="0" speed="13.90" length="2.41" shape="208.55,382.56 207.67,382.27 206.68,381.17"/>
    </edge>
    <edge id=":101_0" function="internal">
        <lane id=":101_0_0" index="0" speed="13.90" length="6.96" shape="186.23,375.76 184.08,375.58 182.27,375.72 180.77,376.19 179.60,377.00"/>
    </edge>
    <edge id=":101_1" function="internal">
        <lane id=":101_1_0" index="0" speed="13.90" length="10.48" shape="186.23,375.76 182.74,374.87 180.97,373.51 180.92,371.70 182.60,369.42"/>
    </edge>
    <edge id=":101_2" function="internal">
        <lane id=":101_2_0" index="0" speed="13.90" length="7.46" shape="184.92,371.76 179.60,377.00"/>
    </edge>
    <edge id=":101_3" function="internal">
        <lane id=":101_3_0" index="0" speed="13.90" length="2.41" shape="184.92,371.76 183.46,372.05 182.59,371.75"/>
    </edge>
    <edge id=":101_6" function="internal">
        <lane id=":101_6_0" index="0" speed="13.90" length="2.41" shape="182.59,371.75 182.30,370.87 182.60,369.42"/>
    </edge>
    <edge id=":101_4" function="internal">
        <lane id=":101_4_0" index="0" speed="13.90" length="7.41" shape="177.32,374.62 182.60,369.42"/>
    </edge>
    <edge id=":101_5" function="internal">
        <lane id=":101_5_0" index="0" speed="13.90" length="2.41" shape="177.32,374.62 178.78,374.35 179.65,374.66"/>
    </edge>
    <edge id=":101_7" function="internal">
        <lane id=":101_7_0" index="0" speed="13.90" length="2.41" shape="179.65,374.66 179.92,375.54 179.60,377.00"/>
    </edge>
    <edge id=":102_0" function="internal">
        <lane id=":102_0_0" index="0" speed="13.90" length="6.05" shape="1067.41,680.62 1066.12,682.05 1065.60,683.36 1065.85,684.56 1066.86,685.65"/>
    </edge>
    <edge id=":102_1" function="internal">
        <lane id=":102_1_0" index="0" speed="13.90" length="9.62" shape="1067.41,680.62 1060.23,687.04"/>
    </edge>
    <edge id=":102_2" function="internal">
        <lane id=":102_2_0" index="0" speed="13.90" length="8.29" shape="1067.41,680.62 1065.21,682.29 1063.25,683.19 1061.51,683.32 1060.00,682.70"/>
    </edge>
    <edge id=":102_3" function="internal">
        <lane id=":102_3_0" index="0" speed="13.90" length="7.49" shape="1061.93,680.02 1066.86,685.65"/>
    </edge>
    <edge id=":102_4" function="internal">
        <lane id=":102_4_0" index="0" speed="13.90" length="1.83" shape="1061.93,680.02 1063.13,681.40"/>
    </edge>
    <edge id=":102_5" function="internal">
        <lane id=":102_5_0" index="0" speed="13.90" length="1.72" shape="1061.93,680.02 1062.45,681.41 1062.41,681.65"/>
    </edge>
    <edge id=":102_6" function="internal">
        <lane id=":102_6_0" index="0" speed="13.90" length="6.70" shape="1063.13,681.40 1063.24,683.03 1062.28,684.91 1060.23,687.04"/>
    </edge>
    <edge id=":102_7" function="internal">
        <lane id=":102_7_0" index="0" speed="13.90" length="3.09" shape="1062.41,681.65 1062.30,682.32 1061.48,682.75 1060.00,682.70"/>
    </edge>
    <edge id=":104_0" function="internal">
        <lane id=":104_0_0" index="0" speed="13.90" length="5.91" shape="379.12,824.97 376.61,819.62"/>
    </edge>
    <edge id=":104_1" function="internal">
        <lane id=":104_1_0" index="0" speed="13.90" length="5.40" shape="374.78,824.43 375.84,823.21 376.49,822.00 376.75,820.80 376.61,819.62"/>
    </edge>
    <edge id=":105_0" function="internal">
        <lane id=":105_0_0" index="0" speed="13.90" length="12.39" shape="367.64,788.61 366.59,785.45 365.48,782.82 364.26,780.24 362.85,777.21"/>
    </edge>
    <edge id=":105_1" function="internal">
        <lane id=":105_1_0" index="0" speed="13.90" length="12.39" shape="367.64,788.61 366.92,785.37 366.64,782.54 366.56,779.67 366.41,776.32"/>
    </edge>
    <edge id=":106_0" function="internal">
        <lane id=":106_0_0" index="0" speed="13.90" length="7.47" shape="406.81,861.34 405.24,860.54 403.96,860.86 402.96,862.29 402.24,864.83"/>
    </edge>
    <edge id=":106_1" function="internal">
        <lane id=":106_1_0" index="0" speed="13.90" length="8.15" shape="406.81,861.34 405.60,860.82 403.89,860.77 401.68,861.21 398.97,862.12"/>
    </edge>
    <edge id=":106_2" function="internal">
        <lane id=":106_2_0" index="0" speed="13.90" length="10.10" shape="406.81,861.34 404.45,859.50 402.85,858.19 401.38,856.75 399.42,854.50"/>
    </edge>
    <edge id=":106_3" function="internal">
        <lane id=":106_3_0" index="0" speed="13.90" length="10.85" shape="408.65,856.71 406.27,857.94 404.42,859.70 403.07,862.00 402.24,864.83"/>
    </edge>
    <edge id=":106_4" function="internal">
        <lane id=":106_4_0" index="0" speed="13.90" length="11.16" shape="408.65,856.71 405.69,857.51 403.39,857.76 401.00,858.07 397.77,859.05"/>
    </edge>
    <edge id=":106_5" function="internal">
        <lane id=":106_5_0" index="0" speed="13.90" length="10.18" shape="408.65,856.71 405.95,857.34 403.52,857.19 401.34,856.24 399.42,854.50"/>
    </edge>
    <edge id=":106_6" function="internal">
        <lane id=":106_6_0" index="0" speed="13.90" length="11.84" shape="405.95,853.65 404.53,856.59 403.58,859.07 402.88,861.64 402.24,864.83"/>
    </edge>
    <edge id=":106_7" function="internal">
        <lane id=":106_7_0" index="0" speed="13.90" length="9.80" shape="405.95,853.65 397.77,859.05"/>
    </edge>
    <edge id=":106_8" function="internal">
        <lane id=":106_8_0" index="0" speed="13.90" length="3.91" shape="405.95,853.65 404.51,855.71 403.27,856.37"/>
    </edge>
    <edge id=":106_9" function="internal">
        <lane id=":106_9_0" index="0" speed="13.90" length="4.57" shape="403.27,856.37 402.94,856.54 401.24,856.14 399.42,854.50"/>
    </edge>
    <edge id=":107_0" function="internal">
        <lane id=":107_0_0" index="0" speed="13.90" length="4.63" shape="331.22,880.25 326.60,880.49"/>
    </edge>
    <edge id=":107_1" function="internal">
        <lane id=":107_1_0" index="0" speed="13.90" length="2.92" shape="330.64,877.00 328.59,877.13 327.82,876.74"/>
    </edge>
    <edge id=":107_4" function="internal">
        <lane id=":107_4_0" index="0" speed="13.90" length="3.58" shape="327.82,876.74 327.52,876.59 327.44,875.41 328.35,873.56"/>
    </edge>
    <edge id=":107_2" function="internal">
        <lane id=":107_2_0" index="0" speed="13.90" length="5.16" shape="325.09,877.55 328.35,873.56"/>
    </edge>
    <edge id=":107_3" function="internal">
        <lane id=":107_3_0" index="0" speed="13.90" length="2.99" shape="325.09,877.55 326.57,877.72 327.31,878.27 327.32,878.85"/>
    </edge>
    <edge id=":107_5" function="internal">
        <lane id=":107_5_0" index="0" speed="13.90" length="1.83" shape="327.32,878.85 327.32,879.19 326.60,880.49"/>
    </edge>
    <edge id=":109_0" function="internal">
        <lane id=":109_0_0" index="0" speed="13.90" length="7.39" shape="344.33,729.73 342.08,722.69"/>
    </edge>
    <edge id=":109_1" function="internal">
        <lane id=":109_1_0" index="0" speed="13.90" length="1.88" shape="344.33,729.73 344.03,728.14 344.10,727.89"/>
    </edge>
    <edge id=":109_4" function="internal">
        <lane id=":109_4_0" index="0" speed="13.90" length="3.68" shape="344.10,727.89 344.36,727.03 345.34,726.42 346.96,726.30"/>
    </edge>
    <edge id=":109_2" function="internal">
        <lane id=":109_2_0" index="0" speed="13.90" length="5.29" shape="339.58,726.29 341.05,725.97 341.96,725.27 342.30,724.18 342.08,722.69"/>
    </edge>
    <edge id=":109_3" function="internal">
        <lane id=":109_3_0" index="0" speed="13.90" length="7.38" shape="339.58,726.29 346.96,726.30"/>
    </edge>
    <edge id=":115_0" function="internal">
        <lane id=":115_0_0" index="0" speed="13.90" length="0.10" shape="1372.65,2336.56 1372.65,2336.57"/>
    </edge>
    <edge id=":115_1" function="internal">
        <lane id=":115_1_0" index="0" speed="13.90" length="2.41" shape="1372.65,2336.56 1371.48,2337.47 1370.57,2337.60"/>
    </edge>
    <edge id=":115_4" function="internal">
        <lane id=":115_4_0" index="0" speed="13.90" length="2.41" shape="1370.57,2337.60 1369.92,2336.95 1369.52,2335.51"/>
    </edge>
    <edge id=":115_2" function="internal">
        <lane id=":115_2_0" index="0" speed="13.90" length="0.10" shape="1369.53,2335.49 1369.52,2335.51"/>
    </edge>
    <edge id=":115_3" function="internal">
        <lane id=":115_3_0" index="0" speed="13.90" length="2.41" shape="1369.53,2335.49 1370.72,2334.59 1371.63,2334.47"/>
    </edge>
    <edge id=":115_5" function="internal">
        <lane id=":115_5_0" index="0" speed="13.90" length="2.41" shape="1371.63,2334.47 1372.28,2335.13 1372.65,2336.57"/>
    </edge>
    <edge id=":116_0" function="internal">
        <lane id=":116_0_0" index="0" speed="13.90" length="4.82" shape="1713.81,2778.07 1714.90,2779.09 1715.17,2779.97 1714.63,2780.72 1713.27,2781.33"/>
    </edge>
    <edge id=":119_0" function="internal">
        <lane id=":119_0_0" index="0" speed="13.90" length="6.77" shape="389.84,842.77 386.18,837.07"/>
    </edge>
    <edge id=":119_1" function="internal">
        <lane id=":119_1_0" index="0" speed="13.90" length="1.87" shape="389.84,842.77 389.01,841.33 388.99,841.13"/>
    </edge>
    <edge id=":119_4" function="internal">
        <lane id=":119_4_0" index="0" speed="13.90" length="3.59" shape="388.99,841.13 388.92,840.16 389.55,839.25 390.92,838.62"/>
    </edge>
    <edge id=":119_2" function="internal">
        <lane id=":119_2_0" index="0" speed="13.90" length="5.16" shape="384.63,841.17 385.89,840.48 386.57,839.56 386.67,838.42 386.18,837.07"/>
    </edge>
    <edge id=":119_3" function="internal">
        <lane id=":119_3_0" index="0" speed="13.90" length="6.79" shape="384.63,841.17 390.92,838.62"/>
    </edge>
    <edge id=":12_0" function="internal">
        <lane id=":12_0_0" index="0" speed="13.90" length="4.82" shape="1482.37,2101.61 1482.42,2100.12 1482.90,2099.34 1483.82,2099.25 1485.17,2099.87"/>
    </edge>
    <edge id=":120_0" function="internal">
        <lane id=":120_0_0" index="0" speed="13.90" length="0.10" shape="447.41,881.04 447.41,881.04"/>
    </edge>
    <edge id=":122_0" function="internal">
        <lane id=":122_0_0" index="0" speed="13.90" length="4.81" shape="505.31,902.14 501.39,899.35"/>
    </edge>
    <edge id=":122_1" function="internal">
        <lane id=":122_1_0" index="0" speed="13.90" length="2.04" shape="505.31,902.14 505.36,900.66 505.65,900.19"/>
    </edge>
    <edge id=":122_4" function="internal">
        <lane id=":122_4_0" index="0" speed="13.90" length="2.78" shape="505.65,900.19 505.85,899.87 506.76,899.79 508.12,900.41"/>
    </edge>
    <edge id=":122_2" function="internal">
        <lane id=":122_2_0" index="0" speed="13.90" length="5.79" shape="504.05,896.29 508.12,900.41"/>
    </edge>
    <edge id=":122_3" function="internal">
        <lane id=":122_3_0" index="0" speed="13.90" length="3.66" shape="504.05,896.29 504.89,898.37 504.73,899.57 504.53,899.63"/>
    </edge>
    <edge id=":122_5" function="internal">
        <lane id=":122_5_0" index="0" speed="13.90" length="3.25" shape="504.53,899.63 503.56,899.90 501.39,899.35"/>
    </edge>
    <edge id=":123_0" function="internal">
        <lane id=":123_0_0" index="0" speed="13.90" length="0.10" shape="488.75,894.70 488.75,894.70"/>
    </edge>
    <edge id=":124_0" function="internal">
        <lane id=":124_0_0" index="0" speed="13.90" length="5.57" shape="417.25,828.14 417.76,829.39 418.65,830.22 419.93,830.63 421.58,830.60"/>
    </edge>
    <edge id=":124_1" function="internal">
        <lane id=":124_1_0" index="0" speed="13.90" length="7.56" shape="417.25,828.14 419.90,835.22"/>
    </edge>
    <edge id=":124_2" function="internal">
        <lane id=":124_2_0" index="0" speed="13.90" length="7.82" shape="417.25,828.14 415.35,835.72"/>
    </edge>
    <edge id=":124_3" function="internal">
        <lane id=":124_3_0" index="0" speed="13.90" length="9.00" shape="412.79,832.50 421.58,830.60"/>
    </edge>
    <edge id=":124_4" function="internal">
        <lane id=":124_4_0" index="0" speed="13.90" length="1.80" shape="412.79,832.50 414.57,832.23"/>
    </edge>
    <edge id=":124_5" function="internal">
        <lane id=":124_5_0" index="0" speed="13.90" length="1.81" shape="412.79,832.50 414.58,832.22"/>
    </edge>
    <edge id=":124_6" function="internal">
        <lane id=":124_6_0" index="0" speed="13.90" length="6.56" shape="414.57,832.23 415.15,832.14 417.12,832.47 418.70,833.49 419.90,835.22"/>
    </edge>
    <edge id=":124_7" function="internal">
        <lane id=":124_7_0" index="0" speed="13.90" length="4.78" shape="414.58,832.22 414.86,832.17 415.98,832.60 416.14,833.78 415.35,835.72"/>
    </edge>
    <edge id=":128_0" function="internal">
        <lane id=":128_0_0" index="0" speed="13.90" length="0.10" shape="1879.33,1266.65 1879.33,1266.65"/>
    </edge>
    <edge id=":129_0" function="internal">
        <lane id=":129_0_0" index="0" speed="13.90" length="10.46" shape="1851.94,1292.93 1849.91,1295.15 1848.79,1297.00 1847.90,1299.04 1846.58,1301.80"/>
    </edge>
    <edge id=":129_1" function="internal">
        <lane id=":129_1_0" index="0" speed="13.90" length="10.44" shape="1851.94,1292.93 1849.69,1294.96 1847.97,1296.30 1846.18,1297.56 1843.71,1299.34"/>
    </edge>
    <edge id=":13_0" function="internal">
        <lane id=":13_0_0" index="0" speed="13.90" length="10.27" shape="1728.47,2259.73 1727.29,2262.50 1726.49,2264.47 1725.72,2266.45 1724.63,2269.26"/>
    </edge>
    <edge id=":13_1" function="internal">
        <lane id=":13_1_0" index="0" speed="13.90" length="4.63" shape="1728.47,2259.73 1727.24,2261.52 1725.23,2262.94"/>
    </edge>
    <edge id=":13_2" function="internal">
        <lane id=":13_2_0" index="0" speed="13.90" length="2.41" shape="1728.47,2259.73 1727.23,2260.54 1726.30,2260.60"/>
    </edge>
    <edge id=":13_9" function="internal">
        <lane id=":13_9_0" index="0" speed="13.90" length="6.57" shape="1725.23,2262.94 1722.46,2263.99 1718.92,2264.68"/>
    </edge>
    <edge id=":13_10" function="internal">
        <lane id=":13_10_0" index="0" speed="13.90" length="2.41" shape="1726.30,2260.60 1725.71,2259.89 1725.44,2258.43"/>
    </edge>
    <edge id=":13_3" function="internal">
        <lane id=":13_3_0" index="0" speed="13.90" length="7.81" shape="1718.50,2261.41 1721.18,2260.93 1723.23,2260.28 1724.65,2259.44 1725.44,2258.43"/>
    </edge>
    <edge id=":13_4" function="internal">
        <lane id=":13_4_0" index="0" speed="13.90" length="13.42" shape="1718.50,2261.41 1722.51,2261.43 1724.87,2262.75 1725.58,2265.36 1724.63,2269.26"/>
    </edge>
    <edge id=":13_5" function="internal">
        <lane id=":13_5_0" index="0" speed="13.90" length="4.82" shape="1718.50,2261.41 1719.84,2262.07 1720.35,2262.83 1720.05,2263.70 1718.92,2264.68"/>
    </edge>
    <edge id=":13_6" function="internal">
        <lane id=":13_6_0" index="0" speed="13.90" length="5.77" shape="1721.56,2268.06 1721.96,2266.38 1721.66,2265.26 1720.65,2264.69 1718.92,2264.68"/>
    </edge>
    <edge id=":13_7" function="internal">
        <lane id=":13_7_0" index="0" speed="13.90" length="10.38" shape="1721.56,2268.06 1722.65,2265.23 1723.44,2263.22 1724.26,2261.21 1725.44,2258.43"/>
    </edge>
    <edge id=":13_8" function="internal">
        <lane id=":13_8_0" index="0" speed="13.90" length="2.41" shape="1721.56,2268.06 1722.78,2267.20 1723.69,2267.12"/>
    </edge>
    <edge id=":13_11" function="internal">
        <lane id=":13_11_0" index="0" speed="13.90" length="2.41" shape="1723.69,2267.12 1724.31,2267.80 1724.63,2269.26"/>
    </edge>
    <edge id=":131_0" function="internal">
        <lane id=":131_0_0" index="0" speed="13.90" length="0.12" shape="1736.06,1209.17 1735.96,1209.11"/>
    </edge>
    <edge id=":131_1" function="internal">
        <lane id=":131_1_0" index="0" speed="13.90" length="2.40" shape="1736.06,1209.17 1735.89,1207.70 1736.25,1206.85"/>
    </edge>
    <edge id=":131_4" function="internal">
        <lane id=":131_4_0" index="0" speed="13.90" length="2.40" shape="1736.25,1206.85 1737.14,1206.63 1738.57,1207.04"/>
    </edge>
    <edge id=":131_2" function="internal">
        <lane id=":131_2_0" index="0" speed="13.90" length="0.36" shape="1738.31,1206.79 1738.57,1207.04"/>
    </edge>
    <edge id=":131_3" function="internal">
        <lane id=":131_3_0" index="0" speed="13.90" length="2.41" shape="1738.31,1206.79 1738.59,1208.25 1738.29,1209.12"/>
    </edge>
    <edge id=":131_5" function="internal">
        <lane id=":131_5_0" index="0" speed="13.90" length="2.41" shape="1738.29,1209.12 1737.41,1209.41 1735.96,1209.11"/>
    </edge>
    <edge id=":133_0" function="internal">
        <lane id=":133_0_0" index="0" speed="13.90" length="5.01" shape="1956.96,1297.69 1961.13,1300.46"/>
    </edge>
    <edge id=":133_1" function="internal">
        <lane id=":133_1_0" index="0" speed="13.90" length="5.20" shape="1956.96,1297.69 1957.88,1302.80"/>
    </edge>
    <edge id=":137_0" function="internal">
        <lane id=":137_0_0" index="0" speed="13.90" length="3.91" shape="1969.22,1496.06 1966.24,1493.53"/>
    </edge>
    <edge id=":137_1" function="internal">
        <lane id=":137_1_0" index="0" speed="13.90" length="2.55" shape="1969.22,1496.06 1969.02,1494.59 1969.36,1493.73 1969.49,1493.69"/>
    </edge>
    <edge id=":137_4" function="internal">
        <lane id=":137_4_0" index="0" speed="13.90" length="2.27" shape="1969.49,1493.69 1970.25,1493.49 1971.69,1493.87"/>
    </edge>
    <edge id=":137_2" function="internal">
        <lane id=":137_2_0" index="0" speed="13.90" length="6.16" shape="1967.82,1489.07 1971.69,1493.87"/>
    </edge>
    <edge id=":137_3" function="internal">
        <lane id=":137_3_0" index="0" speed="13.90" length="10.98" shape="1967.82,1489.07 1969.91,1492.91 1970.35,1494.94 1969.12,1495.14 1966.24,1493.53"/>
    </edge>
    <edge id=":14_0" function="internal">
        <lane id=":14_0_0" index="0" speed="13.90" length="5.01" shape="1858.57,1955.57 1858.43,1956.94 1858.76,1958.02 1859.57,1958.81 1860.85,1959.31"/>
    </edge>
    <edge id=":14_1" function="internal">
        <lane id=":14_1_0" index="0" speed="13.90" length="5.89" shape="1858.57,1955.57 1856.67,1961.15"/>
    </edge>
    <edge id=":14_2" function="internal">
        <lane id=":14_2_0" index="0" speed="13.90" length="2.61" shape="1858.57,1955.57 1857.47,1956.57 1856.57,1956.77 1856.42,1956.65"/>
    </edge>
    <edge id=":14_6" function="internal">
        <lane id=":14_6_0" index="0" speed="13.90" length="2.21" shape="1856.42,1956.65 1855.87,1956.17 1855.37,1954.77"/>
    </edge>
    <edge id=":14_3" function="internal">
        <lane id=":14_3_0" index="0" speed="13.90" length="5.26" shape="1853.68,1959.76 1855.37,1954.77"/>
    </edge>
    <edge id=":14_4" function="internal">
        <lane id=":14_4_0" index="0" speed="13.90" length="2.47" shape="1853.68,1959.76 1854.46,1959.01 1855.81,1958.71"/>
    </edge>
    <edge id=":14_5" function="internal">
        <lane id=":14_5_0" index="0" speed="13.90" length="2.27" shape="1853.68,1959.76 1854.95,1958.98 1855.72,1958.96"/>
    </edge>
    <edge id=":14_7" function="internal">
        <lane id=":14_7_0" index="0" speed="13.90" length="5.10" shape="1855.81,1958.71 1855.92,1958.68 1858.05,1958.79 1860.85,1959.31"/>
    </edge>
    <edge id=":14_8" function="internal">
        <lane id=":14_8_0" index="0" speed="13.90" length="2.55" shape="1855.72,1958.96 1855.87,1958.96 1856.44,1959.68 1856.67,1961.15"/>
    </edge>
    <edge id=":141_0" function="internal">
        <lane id=":141_0_0" index="0" speed="13.90" length="4.82" shape="1741.74,2633.29 1742.82,2634.31 1743.10,2635.19 1742.56,2635.93 1741.20,2636.55"/>
    </edge>
    <edge id=":143_0" function="internal">
        <lane id=":143_0_0" index="0" speed="13.90" length="4.82" shape="1446.13,2928.23 1444.89,2929.06 1443.97,2929.13 1443.37,2928.43 1443.07,2926.97"/>
    </edge>
    <edge id=":144_0" function="internal">
        <lane id=":144_0_0" index="0" speed="13.90" length="9.18" shape="419.24,135.57 412.72,142.04"/>
    </edge>
    <edge id=":144_1" function="internal">
        <lane id=":144_1_0" index="0" speed="13.90" length="16.84" shape="419.24,135.57 413.44,140.71 410.55,141.82 410.59,138.88 411.79,136.06"/>
    </edge>
    <edge id=":144_2" function="internal">
        <lane id=":144_2_0" index="0" speed="13.90" length="2.41" shape="419.24,135.57 417.78,135.85 416.91,135.55"/>
    </edge>
    <edge id=":144_6" function="internal">
        <lane id=":144_6_0" index="0" speed="13.90" length="4.51" shape="411.79,136.06 413.55,131.91"/>
    </edge>
    <edge id=":144_7" function="internal">
        <lane id=":144_7_0" index="0" speed="13.90" length="2.41" shape="416.91,135.55 416.62,134.68 416.92,133.22"/>
    </edge>
    <edge id=":144_3" function="internal">
        <lane id=":144_3_0" index="0" speed="13.90" length="8.45" shape="410.36,139.73 413.55,131.91"/>
    </edge>
    <edge id=":144_4" function="internal">
        <lane id=":144_4_0" index="0" speed="13.90" length="9.24" shape="410.36,139.73 416.92,133.22"/>
    </edge>
    <edge id=":144_5" function="internal">
        <lane id=":144_5_0" index="0" speed="13.90" length="2.41" shape="410.36,139.73 411.82,139.42 412.69,139.70"/>
    </edge>
    <edge id=":144_8" function="internal">
        <lane id=":144_8_0" index="0" speed="13.90" length="2.41" shape="412.69,139.70 413.00,140.58 412.72,142.04"/>
    </edge>
    <edge id=":145_0" function="internal">
        <lane id=":145_0_0" index="0" speed="13.90" length="0.63" shape="419.27,112.27 419.24,111.64"/>
    </edge>
    <edge id=":147_0" function="internal">
        <lane id=":147_0_0" index="0" speed="13.90" length="0.10" shape="353.61,756.29 353.61,756.29"/>
    </edge>
    <edge id=":148_0" function="internal">
        <lane id=":148_0_0" index="0" speed="13.90" length="4.82" shape="608.38,1165.94 607.94,1167.36 607.27,1167.99 606.36,1167.83 605.22,1166.88"/>
    </edge>
    <edge id=":149_0" function="internal">
        <lane id=":149_0_0" index="0" speed="13.90" length="0.32" shape="526.45,946.69 526.34,946.38"/>
    </edge>
    <edge id=":149_1" function="internal">
        <lane id=":149_1_0" index="0" speed="13.90" length="2.41" shape="526.45,946.69 526.77,945.23 527.39,944.55"/>
    </edge>
    <edge id=":149_4" function="internal">
        <lane id=":149_4_0" index="0" speed="13.90" length="2.41" shape="527.39,944.55 528.31,944.64 529.53,945.49"/>
    </edge>
    <edge id=":149_2" function="internal">
        <lane id=":149_2_0" index="0" speed="13.90" length="0.11" shape="529.49,945.39 529.53,945.49"/>
    </edge>
    <edge id=":149_3" function="internal">
        <lane id=":149_3_0" index="0" speed="13.90" length="2.41" shape="529.49,945.39 529.08,946.82 528.41,947.46"/>
    </edge>
    <edge id=":149_5" function="internal">
        <lane id=":149_5_0" index="0" speed="13.90" length="2.41" shape="528.41,947.46 527.50,947.32 526.34,946.38"/>
    </edge>
    <edge id=":150_0" function="internal">
        <lane id=":150_0_0" index="0" speed="13.90" length="0.10" shape="347.33,181.37 347.33,181.37"/>
    </edge>
    <edge id=":151_0" function="internal">
        <lane id=":151_0_0" index="0" speed="13.90" length="6.28" shape="365.02,192.99 360.51,197.37"/>
    </edge>
    <edge id=":151_1" function="internal">
        <lane id=":151_1_0" index="0" speed="13.90" length="2.41" shape="365.02,192.99 363.56,193.27 362.68,192.98"/>
    </edge>
    <edge id=":151_6" function="internal">
        <lane id=":151_6_0" index="0" speed="13.90" length="2.41" shape="362.68,192.98 362.40,192.10 362.70,190.64"/>
    </edge>
    <edge id=":151_2" function="internal">
        <lane id=":151_2_0" index="0" speed="13.90" length="5.15" shape="358.10,190.61 359.32,191.41 360.49,191.68 361.62,191.42 362.70,190.64"/>
    </edge>
    <edge id=":151_3" function="internal">
        <lane id=":151_3_0" index="0" speed="13.90" length="8.13" shape="358.10,190.61 360.13,192.64 361.20,194.44 361.33,196.02 360.51,197.37"/>
    </edge>
    <edge id=":151_4" function="internal">
        <lane id=":151_4_0" index="0" speed="13.90" length="6.24" shape="358.23,194.99 362.70,190.64"/>
    </edge>
    <edge id=":151_5" function="internal">
        <lane id=":151_5_0" index="0" speed="13.90" length="2.41" shape="358.23,194.99 359.69,194.73 360.56,195.04"/>
    </edge>
    <edge id=":151_7" function="internal">
        <lane id=":151_7_0" index="0" speed="13.90" length="2.41" shape="360.56,195.04 360.84,195.92 360.51,197.37"/>
    </edge>
    <edge id=":152_0" function="internal">
        <lane id=":152_0_0" index="0" speed="13.90" length="3.78" shape="1069.89,721.51 1066.68,723.07"/>
        <lane id=":152_0_1" index="1" speed="13.90" length="3.78" shape="1071.49,718.63 1067.54,719.89"/>
        <lane id=":152_0_2" index="2" speed="13.90" length="3.78" shape="1071.49,718.63 1068.40,716.70"/>
    </edge>
    <edge id=":152_3" function="internal">
        <lane id=":152_3_0" index="0" speed="13.90" length="4.86" shape="1071.33,710.43 1074.69,712.85"/>
        <lane id=":152_3_1" index="1" speed="13.90" length="4.86" shape="1071.33,710.43 1073.09,715.74"/>
    </edge>
    <edge id=":152_5" function="internal">
        <lane id=":152_5_0" index="0" speed="13.90" length="12.07" shape="1071.33,710.43 1075.74,714.71 1076.72,717.19 1074.28,717.85 1070.79,717.17"/>