<?xml version="1.0" encoding="UTF-8"?>

<!-- generated on Sun Apr 23 15:18:57 2017 by SUMO netconvert Version 0.25.0
<?xml version="1.0" encoding="UTF-8"?>

<configuration xmlns:xsi="http://www.w3.org/2001/XMLSchema-instance" xsi:noNamespaceSchemaLocation="http://sumo.dlr.de/xsd/netconvertConfiguration.xsd">

    <input>
        <type-files value="filter.xml"/>
        <shapefile-prefix value="GIS/Hamburg_Alster-v2.0"/>
    </input>

    <output>
        <output-file value="map.net.xml"/>
    </output>

    <projection>
        <proj.utm value="true"/>
    </projection>

    <processing>
        <shapefile.use-defaults-on-failure value="true"/>
    </processing>

</configuration>
-->

<net version="0.25" xmlns:xsi="http://www.w3.org/2001/XMLSchema-instance" xsi:noNamespaceSchemaLocation="http://sumo.dlr.de/xsd/net_file.xsd">

    <location netOffset="-565439.62,-5934035.06" convBoundary="0.00,0.00,2124.70,2927.60" origBoundary="9.987769,53.551075,10.020109,53.577252" projParameter="+proj=utm +zone=32 +ellps=WGS84 +datum=WGS84 +units=m +no_defs"/>

    <type id="highway.cycleway" priority="2" numLanes="1" speed="6.94" allow="bicycle"/>
    <type id="highway.footway" priority="2" numLanes="1" speed="1.39" allow="pedestrian"/>
    <type id="highway.path" priority="2" numLanes="1" speed="6.94" allow="pedestrian"/>
    <type id="highway.pedestrian" priority="5" numLanes="1" speed="1.39" allow="pedestrian"/>
    <type id="highway.primary" priority="11" numLanes="2" speed="13.89"/>
    <type id="highway.residential" priority="7" numLanes="1" speed="13.89"/>
    <type id="highway.secondary" priority="10" numLanes="2" speed="13.89"/>
    <type id="highway.secondary_link" priority="10" numLanes="2" speed="13.89"/>
    <type id="highway.steps" priority="2" numLanes="1" speed="1.39" allow="pedestrian"/>
    <type id="highway.tertiary" priority="9" numLanes="1" speed="13.89"/>
    <type id="highway.tertiary_link" priority="9" numLanes="1" speed="13.89"/>
    <type id="highway.unclassified" priority="8" numLanes="1" speed="13.89"/>

    <edge id=":0_0" function="internal">
        <lane id=":0_0_0" index="0" speed="13.90" length="10.22" shape="1948.59,1482.27 1946.02,1480.72 1944.22,1479.63 1942.41,1478.56 1939.83,1477.02"/>
    </edge>
    <edge id=":0_1" function="internal">
        <lane id=":0_1_0" index="0" speed="13.90" length="10.25" shape="1948.59,1482.27 1946.21,1480.52 1944.94,1478.88 1943.97,1476.94 1942.46,1474.29"/>
    </edge>
    <edge id=":1_0" function="internal">
        <lane id=":1_0_0" index="0" speed="13.90" length="9.61" shape="1938.54,1440.53 1937.88,1443.65 1937.70,1446.25 1937.99,1448.32 1938.76,1449.86"/>
    </edge>
    <edge id=":1_1" function="internal">
        <lane id=":1_1_0" index="0" speed="13.90" length="2.30" shape="1938.54,1440.53 1937.43,1441.51 1936.63,1441.68"/>
    </edge>
    <edge id=":1_6" function="internal">
        <lane id=":1_6_0" index="0" speed="13.90" length="2.52" shape="1936.63,1441.68 1936.52,1441.70 1935.83,1441.09 1935.35,1439.68"/>
    </edge>
    <edge id=":1_2" function="internal">
        <lane id=":1_2_0" index="0" speed="13.90" length="6.07" shape="1931.23,1440.59 1932.59,1441.86 1933.73,1442.13 1934.65,1441.41 1935.35,1439.68"/>
    </edge>
    <edge id=":1_3" function="internal">
        <lane id=":1_3_0" index="0" speed="13.90" length="11.94" shape="1931.23,1440.59 1933.32,1443.11 1935.03,1445.20 1936.73,1447.30 1938.76,1449.86"/>
    </edge>
    <edge id=":1_4" function="internal">
        <lane id=":1_4_0" index="0" speed="13.90" length="11.33" shape="1934.80,1450.96 1934.97,1447.79 1934.83,1445.27 1934.81,1442.79 1935.35,1439.68"/>
    </edge>
    <edge id=":1_5" function="internal">
        <lane id=":1_5_0" index="0" speed="13.90" length="3.53" shape="1934.80,1450.96 1935.30,1448.91 1936.12,1448.05 1936.35,1448.11"/>
    </edge>
    <edge id=":1_7" function="internal">
        <lane id=":1_7_0" index="0" speed="13.90" length="3.07" shape="1936.35,1448.11 1937.28,1448.36 1938.76,1449.86"/>
    </edge>
    <edge id=":100_0" function="internal">
        <lane id=":100_0_0" index="0" speed="13.90" length="4.82" shape="1829.62,1225.64 1831.08,1225.91 1831.79,1226.50 1831.73,1227.42 1830.92,1228.67"/>
    </edge>
    <edge id=":101_0" function="internal">
        <lane id=":101_0_0" index="0" speed="13.90" length="9.07" shape="1790.52,1244.38 1787.32,1245.38 1786.12,1246.35 1786.91,1247.30 1789.70,1248.22"/>
    </edge>
    <edge id=":101_1" function="internal">
        <lane id=":101_1_0" index="0" speed="13.90" length="0.80" shape="1790.52,1244.38 1789.88,1243.90"/>
    </edge>
    <edge id=":101_4" function="internal">
        <lane id=":101_4_0" index="0" speed="13.90" length="4.23" shape="1789.88,1243.90 1789.28,1243.45 1788.89,1242.57 1789.37,1241.73 1790.71,1240.94"/>
    </edge>
    <edge id=":101_2" function="internal">
        <lane id=":101_2_0" index="0" speed="13.90" length="7.55" shape="1785.18,1246.09 1790.71,1240.94"/>
    </edge>
    <edge id=":101_3" function="internal">
        <lane id=":101_3_0" index="0" speed="13.90" length="5.00" shape="1785.18,1246.09 1789.70,1248.22"/>
    </edge>
    <edge id=":103_0" function="internal">
        <lane id=":103_0_0" index="0" speed="13.90" length="7.41" shape="1857.90,1331.43 1858.89,1333.18 1859.12,1334.86 1858.60,1336.48 1857.32,1338.03"/>
    </edge>
    <edge id=":103_1" function="internal">
        <lane id=":103_1_0" index="0" speed="13.90" length="2.82" shape="1857.90,1331.43 1858.00,1332.91 1857.59,1333.74 1857.19,1333.82"/>
    </edge>
    <edge id=":103_4" function="internal">
        <lane id=":103_4_0" index="0" speed="13.90" length="2.00" shape="1857.19,1333.82 1856.69,1333.92 1855.28,1333.44"/>
    </edge>
    <edge id=":103_2" function="internal">
        <lane id=":103_2_0" index="0" speed="13.90" length="2.42" shape="1855.09,1335.59 1855.51,1335.09 1855.68,1334.56 1855.60,1334.01 1855.28,1333.44"/>
    </edge>
    <edge id=":103_3" function="internal">
        <lane id=":103_3_0" index="0" speed="13.90" length="2.17" shape="1855.09,1335.59 1856.56,1335.36 1857.20,1335.61"/>
    </edge>
    <edge id=":103_5" function="internal">
        <lane id=":103_5_0" index="0" speed="13.90" length="2.65" shape="1857.20,1335.61 1857.42,1335.69 1857.68,1336.58 1857.32,1338.03"/>
    </edge>
    <edge id=":104_0" function="internal">
        <lane id=":104_0_0" index="0" speed="13.90" length="6.90" shape="953.03,677.53 948.18,672.63"/>
    </edge>
    <edge id=":104_1" function="internal">
        <lane id=":104_1_0" index="0" speed="13.90" length="1.89" shape="953.03,677.53 952.07,676.36 951.98,675.99"/>
    </edge>
    <edge id=":104_4" function="internal">
        <lane id=":104_4_0" index="0" speed="13.90" length="3.42" shape="951.98,675.99 951.81,675.25 952.24,674.18 953.36,673.17"/>
    </edge>
    <edge id=":104_2" function="internal">
        <lane id=":104_2_0" index="0" speed="13.90" length="5.20" shape="947.59,676.97 948.69,676.01 949.16,674.97 948.99,673.84 948.18,672.63"/>
    </edge>
    <edge id=":104_3" function="internal">
        <lane id=":104_3_0" index="0" speed="13.90" length="6.90" shape="947.59,676.97 953.36,673.17"/>
    </edge>
    <edge id=":105_0" function="internal">
        <lane id=":105_0_0" index="0" speed="13.90" length="7.07" shape="939.64,663.49 934.67,658.47"/>
    </edge>
    <edge id=":105_1" function="internal">
        <lane id=":105_1_0" index="0" speed="13.90" length="6.64" shape="935.68,664.86 935.83,662.67 935.71,660.88 935.32,659.48 934.67,658.47"/>
    </edge>
    <edge id=":106_0" function="internal">
        <lane id=":106_0_0" index="0" speed="13.90" length="9.05" shape="1916.42,1518.31 1915.40,1527.30"/>
    </edge>
    <edge id=":106_1" function="internal">
        <lane id=":106_1_0" index="0" speed="13.90" length="7.94" shape="1916.42,1518.31 1915.01,1523.24 1913.75,1525.56 1913.58,1525.51"/>
    </edge>
    <edge id=":106_4" function="internal">
        <lane id=":106_4_0" index="0" speed="13.90" length="4.06" shape="1913.58,1525.51 1912.64,1525.25 1911.67,1522.33"/>
    </edge>
    <edge id=":106_2" function="internal">
        <lane id=":106_2_0" index="0" speed="13.90" length="4.71" shape="1912.12,1527.01 1911.67,1522.33"/>
    </edge>
    <edge id=":106_3" function="internal">
        <lane id=":106_3_0" index="0" speed="13.90" length="2.51" shape="1912.12,1527.01 1913.05,1525.85 1913.90,1525.51 1913.99,1525.57"/>
    </edge>
    <edge id=":106_5" function="internal">
        <lane id=":106_5_0" index="0" speed="13.90" length="2.31" shape="1913.99,1525.57 1914.69,1526.00 1915.40,1527.30"/>
    </edge>
    <edge id=":108_0" function="internal">
        <lane id=":108_0_0" index="0" speed="13.90" length="0.10" shape="1860.91,1355.38 1860.91,1355.38"/>
    </edge>
    <edge id=":109_0" function="internal">
        <lane id=":109_0_0" index="0" speed="13.90" length="5.00" shape="1904.64,1408.66 1907.86,1412.48"/>
    </edge>
    <edge id=":109_1" function="internal">
        <lane id=":109_1_0" index="0" speed="13.90" length="5.61" shape="1904.64,1408.66 1904.60,1414.27"/>
    </edge>
    <edge id=":111_0" function="internal">
        <lane id=":111_0_0" index="0" speed="13.90" length="0.10" shape="1913.30,1551.53 1913.30,1551.54"/>
    </edge>
    <edge id=":111_1" function="internal">
        <lane id=":111_1_0" index="0" speed="13.90" length="2.41" shape="1913.30,1551.53 1912.38,1552.69 1911.52,1553.03"/>
    </edge>
    <edge id=":111_4" function="internal">
        <lane id=":111_4_0" index="0" speed="13.90" length="2.41" shape="1911.52,1553.03 1910.73,1552.55 1910.02,1551.25"/>
    </edge>
    <edge id=":111_2" function="internal">
        <lane id=":111_2_0" index="0" speed="13.90" length="0.10" shape="1910.02,1551.24 1910.02,1551.25"/>
    </edge>
    <edge id=":111_3" function="internal">
        <lane id=":111_3_0" index="0" speed="13.90" length="2.41" shape="1910.02,1551.24 1910.95,1550.08 1911.81,1549.74"/>
    </edge>
    <edge id=":111_5" function="internal">
        <lane id=":111_5_0" index="0" speed="13.90" length="2.41" shape="1911.81,1549.74 1912.60,1550.23 1913.30,1551.54"/>
    </edge>
    <edge id=":112_0" function="internal">
        <lane id=":112_0_0" index="0" speed="13.90" length="0.10" shape="1047.56,712.73 1047.56,712.73"/>
    </edge>
    <edge id=":113_0" function="internal">
        <lane id=":113_0_0" index="0" speed="13.90" length="12.75" shape="1000.68,708.14 997.29,708.02 994.31,707.90 991.34,707.78 987.94,707.64"/>
    </edge>
    <edge id=":113_1" function="internal">
        <lane id=":113_1_0" index="0" speed="13.90" length="12.58" shape="1000.68,708.14 997.36,707.76 994.59,706.90 991.94,705.62 988.97,703.98"/>
    </edge>
    <edge id=":113_2" function="internal">
        <lane id=":113_2_0" index="0" speed="13.90" length="2.43" shape="998.80,704.34 997.15,705.91 997.02,705.98"/>
    </edge>
    <edge id=":113_3" function="internal">
        <lane id=":113_3_0" index="0" speed="13.90" length="2.81" shape="998.80,704.34 997.22,705.69 996.49,705.81"/>
    </edge>
    <edge id=":113_4" function="internal">
        <lane id=":113_4_0" index="0" speed="13.90" length="9.35" shape="997.02,705.98 994.79,706.99 991.72,707.56 987.94,707.64"/>
    </edge>
    <edge id=":113_5" function="internal">
        <lane id=":113_5_0" index="0" speed="13.90" length="7.94" shape="996.49,705.81 995.05,706.07 992.30,705.50 988.97,703.98"/>
    </edge>
    <edge id=":114_0" function="internal">
        <lane id=":114_0_0" index="0" speed="13.90" length="4.82" shape="1806.18,1359.16 1805.59,1357.80 1805.69,1356.88 1806.49,1356.41 1807.98,1356.39"/>
    </edge>
    <edge id=":115_0" function="internal">
        <lane id=":115_0_0" index="0" speed="13.90" length="0.59" shape="1812.63,1363.48 1812.20,1363.07"/>
    </edge>
    <edge id=":115_1" function="internal">
        <lane id=":115_1_0" index="0" speed="13.90" length="2.41" shape="1812.63,1363.48 1812.58,1361.99 1813.01,1361.18"/>
    </edge>
    <edge id=":115_4" function="internal">
        <lane id=":115_4_0" index="0" speed="13.90" length="2.41" shape="1813.01,1361.18 1813.92,1361.03 1815.31,1361.56"/>
    </edge>
    <edge id=":115_2" function="internal">
        <lane id=":115_2_0" index="0" speed="13.90" length="1.81" shape="1814.00,1360.30 1815.31,1361.56"/>
    </edge>
    <edge id=":115_3" function="internal">
        <lane id=":115_3_0" index="0" speed="13.90" length="2.41" shape="1814.00,1360.30 1814.59,1361.67 1814.48,1362.59"/>
    </edge>
    <edge id=":115_5" function="internal">
        <lane id=":115_5_0" index="0" speed="13.90" length="2.41" shape="1814.48,1362.59 1813.69,1363.05 1812.20,1363.07"/>
    </edge>
    <edge id=":118_0" function="internal">
        <lane id=":118_0_0" index="0" speed="13.90" length="5.31" shape="868.04,516.76 867.07,517.87 866.64,519.02 866.76,520.22 867.43,521.45"/>
    </edge>
    <edge id=":118_1" function="internal">
        <lane id=":118_1_0" index="0" speed="13.90" length="6.45" shape="868.04,516.76 863.08,520.89"/>
    </edge>
    <edge id=":118_2" function="internal">
        <lane id=":118_2_0" index="0" speed="13.90" length="6.45" shape="863.69,516.21 867.43,521.45"/>
    </edge>
    <edge id=":118_3" function="internal">
        <lane id=":118_3_0" index="0" speed="13.90" length="1.69" shape="863.69,516.21 864.35,517.52 864.37,517.73"/>
    </edge>
    <edge id=":118_4" function="internal">
        <lane id=":118_4_0" index="0" speed="13.90" length="3.61" shape="864.37,517.73 864.47,518.74 864.04,519.86 863.08,520.89"/>
    </edge>
    <edge id=":119_0" function="internal">
        <lane id=":119_0_0" index="0" speed="13.90" length="11.88" shape="883.23,537.20 884.27,541.80 885.39,545.07 886.59,547.01 887.88,547.61"/>
    </edge>
    <edge id=":119_1" function="internal">
        <lane id=":119_1_0" index="0" speed="13.90" length="15.02" shape="883.23,537.20 884.03,540.87 885.08,544.49 886.44,547.98 888.19,551.29"/>
    </edge>
    <edge id=":119_2" function="internal">
        <lane id=":119_2_0" index="0" speed="13.90" length="12.13" shape="879.80,538.78 882.62,542.68 884.90,545.45 886.66,547.09 887.88,547.61"/>
    </edge>
    <edge id=":119_3" function="internal">
        <lane id=":119_3_0" index="0" speed="13.90" length="15.07" shape="879.80,538.78 881.94,541.87 884.08,544.98 886.17,548.12 888.19,551.29"/>
    </edge>
    <edge id=":12_0" function="internal">
        <lane id=":12_0_0" index="0" speed="13.90" length="4.82" shape="1623.08,2187.83 1621.60,2187.94 1620.76,2187.54 1620.58,2186.64 1621.06,2185.22"/>
    </edge>
    <edge id=":121_0" function="internal">
        <lane id=":121_0_0" index="0" speed="13.90" length="0.10" shape="1814.70,1343.09 1814.70,1343.09"/>
    </edge>
    <edge id=":122_0" function="internal">
        <lane id=":122_0_0" index="0" speed="13.90" length="5.87" shape="1857.98,1259.65 1860.85,1254.53"/>
    </edge>
    <edge id=":122_1" function="internal">
        <lane id=":122_1_0" index="0" speed="13.90" length="5.07" shape="1857.98,1259.65 1862.72,1257.88"/>
    </edge>
    <edge id=":123_0" function="internal">
        <lane id=":123_0_0" index="0" speed="13.90" length="5.07" shape="1866.26,1232.00 1864.84,1227.13"/>
    </edge>
    <edge id=":123_1" function="internal">
        <lane id=":123_1_0" index="0" speed="13.90" length="5.33" shape="1869.33,1230.01 1864.84,1227.13"/>
    </edge>
    <edge id=":124_0" function="internal">
        <lane id=":124_0_0" index="0" speed="13.90" length="0.11" shape="1822.63,1369.16 1822.55,1369.08"/>
    </edge>
    <edge id=":124_1" function="internal">
        <lane id=":124_1_0" index="0" speed="13.90" length="2.41" shape="1822.63,1369.16 1822.49,1367.68 1822.87,1366.84"/>
    </edge>
    <edge id=":124_4" function="internal">
        <lane id=":124_4_0" index="0" speed="13.90" length="2.41" shape="1822.87,1366.84 1823.77,1366.64 1825.19,1367.08"/>
    </edge>
    <edge id=":124_2" function="internal">
        <lane id=":124_2_0" index="0" speed="13.90" length="0.35" shape="1824.96,1366.82 1825.19,1367.08"/>
    </edge>
    <edge id=":124_3" function="internal">
        <lane id=":124_3_0" index="0" speed="13.90" length="2.41" shape="1824.96,1366.82 1825.21,1368.28 1824.89,1369.15"/>
    </edge>
    <edge id=":124_5" function="internal">
        <lane id=":124_5_0" index="0" speed="13.90" length="2.41" shape="1824.89,1369.15 1824.00,1369.41 1822.55,1369.08"/>
    </edge>
    <edge id=":125_0" function="internal">
        <lane id=":125_0_0" index="0" speed="13.90" length="0.22" shape="1830.77,1379.20 1830.64,1379.02"/>
    </edge>
    <edge id=":125_1" function="internal">
        <lane id=":125_1_0" index="0" speed="13.90" length="2.41" shape="1830.77,1379.20 1830.83,1377.71 1831.32,1376.93"/>
    </edge>
    <edge id=":125_4" function="internal">
        <lane id=":125_4_0" index="0" speed="13.90" length="2.41" shape="1831.32,1376.93 1832.24,1376.85 1833.59,1377.48"/>
    </edge>
    <edge id=":125_2" function="internal">
        <lane id=":125_2_0" index="0" speed="13.90" length="0.67" shape="1833.21,1376.94 1833.59,1377.48"/>
    </edge>
    <edge id=":125_3" function="internal">
        <lane id=":125_3_0" index="0" speed="13.90" length="2.41" shape="1833.21,1376.94 1833.35,1378.42 1832.97,1379.26"/>
    </edge>
    <edge id=":125_5" function="internal">
        <lane id=":125_5_0" index="0" speed="13.90" length="2.41" shape="1832.97,1379.26 1832.07,1379.46 1830.64,1379.02"/>
    </edge>
    <edge id=":127_0" function="internal">
        <lane id=":127_0_0" index="0" speed="13.90" length="5.57" shape="1848.57,1410.59 1847.61,1409.27 1846.58,1408.76 1845.46,1409.06 1844.27,1410.17"/>
    </edge>
    <edge id=":127_1" function="internal">
        <lane id=":127_1_0" index="0" speed="13.90" length="10.05" shape="1848.57,1410.59 1847.17,1407.96 1846.20,1406.16 1845.22,1404.36 1843.78,1401.75"/>
    </edge>
    <edge id=":127_2" function="internal">
        <lane id=":127_2_0" index="0" speed="13.90" length="2.41" shape="1848.57,1410.59 1848.72,1409.10 1849.25,1408.35"/>
    </edge>
    <edge id=":127_9" function="internal">
        <lane id=":127_9_0" index="0" speed="13.90" length="2.41" shape="1849.25,1408.35 1850.17,1408.32 1851.48,1409.03"/>
    </edge>
    <edge id=":127_3" function="internal">
        <lane id=":127_3_0" index="0" speed="13.90" length="10.09" shape="1846.67,1400.16 1848.11,1402.77 1849.10,1404.58 1850.07,1406.40 1851.48,1409.03"/>
    </edge>
    <edge id=":127_4" function="internal">
        <lane id=":127_4_0" index="0" speed="13.90" length="4.73" shape="1846.67,1400.16 1847.39,1402.36 1847.23,1404.77"/>
    </edge>
    <edge id=":127_5" function="internal">
        <lane id=":127_5_0" index="0" speed="13.90" length="2.41" shape="1846.67,1400.16 1846.55,1401.64 1846.03,1402.40"/>
    </edge>
    <edge id=":127_10" function="internal">
        <lane id=":127_10_0" index="0" speed="13.90" length="6.20" shape="1847.23,1404.77 1846.19,1407.37 1844.27,1410.17"/>
    </edge>
    <edge id=":127_11" function="internal">
        <lane id=":127_11_0" index="0" speed="13.90" length="2.41" shape="1846.03,1402.40 1845.10,1402.44 1843.78,1401.75"/>
    </edge>
    <edge id=":127_6" function="internal">
        <lane id=":127_6_0" index="0" speed="13.90" length="7.02" shape="1841.71,1408.08 1843.08,1406.16 1843.89,1404.46 1844.12,1402.99 1843.78,1401.75"/>
    </edge>
    <edge id=":127_7" function="internal">
        <lane id=":127_7_0" index="0" speed="13.90" length="12.63" shape="1841.71,1408.08 1844.42,1405.57 1846.95,1404.89 1849.30,1406.04 1851.48,1409.03"/>
    </edge>
    <edge id=":127_8" function="internal">
        <lane id=":127_8_0" index="0" speed="13.90" length="4.82" shape="1841.71,1408.08 1843.13,1407.65 1844.03,1407.85 1844.41,1408.69 1844.27,1410.17"/>
    </edge>
    <edge id=":129_0" function="internal">
        <lane id=":129_0_0" index="0" speed="13.90" length="4.82" shape="1820.99,1196.64 1821.67,1195.32 1822.45,1194.82 1823.31,1195.13 1824.27,1196.27"/>
    </edge>
    <edge id=":13_0" function="internal">
        <lane id=":13_0_0" index="0" speed="13.90" length="4.82" shape="1882.46,2161.79 1883.25,2163.05 1883.29,2163.97 1882.57,2164.55 1881.10,2164.80"/>
    </edge>
    <edge id=":130_0" function="internal">
        <lane id=":130_0_0" index="0" speed="13.90" length="4.82" shape="1001.14,606.88 1001.96,605.65 1002.79,605.23 1003.61,605.64 1004.44,606.88"/>
    </edge>
    <edge id=":131_0" function="internal">
        <lane id=":131_0_0" index="0" speed="13.90" length="4.82" shape="944.37,668.44 942.89,668.60 942.05,668.23 941.83,667.34 942.25,665.91"/>
    </edge>
    <edge id=":132_0" function="internal">
        <lane id=":132_0_0" index="0" speed="13.90" length="4.82" shape="942.01,666.16 943.42,665.69 944.33,665.88 944.72,666.71 944.61,668.19"/>
    </edge>
    <edge id=":133_0" function="internal">
        <lane id=":133_0_0" index="0" speed="13.90" length="4.82" shape="937.47,675.66 935.99,675.86 935.14,675.51 934.91,674.62 935.29,673.18"/>
    </edge>
    <edge id=":136_0" function="internal">
        <lane id=":136_0_0" index="0" speed="13.90" length="6.14" shape="1923.81,1467.25 1922.10,1466.44 1920.93,1466.53 1920.30,1467.53 1920.21,1469.42"/>
    </edge>
    <edge id=":136_1" function="internal">
        <lane id=":136_1_0" index="0" speed="13.90" length="10.45" shape="1923.81,1467.25 1921.25,1465.61 1919.42,1464.41 1917.63,1463.17 1915.14,1461.41"/>
    </edge>
    <edge id=":136_2" function="internal">
        <lane id=":136_2_0" index="0" speed="13.90" length="10.44" shape="1918.50,1459.14 1919.20,1462.10 1919.64,1464.23 1919.94,1466.39 1920.21,1469.42"/>
    </edge>
    <edge id=":136_3" function="internal">
        <lane id=":136_3_0" index="0" speed="13.90" length="2.80" shape="1918.50,1459.14 1918.79,1461.38 1918.59,1461.89"/>
    </edge>
    <edge id=":136_4" function="internal">
        <lane id=":136_4_0" index="0" speed="13.90" length="4.15" shape="1918.59,1461.89 1918.33,1462.51 1917.12,1462.52 1915.14,1461.41"/>
    </edge>
    <edge id=":138_0" function="internal">
        <lane id=":138_0_0" index="0" speed="13.90" length="0.10" shape="1853.06,1344.94 1853.06,1344.94"/>
    </edge>
    <edge id=":14_0" function="internal">
        <lane id=":14_0_0" index="0" speed="13.90" length="4.82" shape="1482.37,2101.61 1482.42,2100.13 1482.90,2099.34 1483.82,2099.26 1485.18,2099.87"/>
    </edge>
    <edge id=":140_0" function="internal">
        <lane id=":140_0_0" index="0" speed="13.90" length="11.04" shape="211.18,347.62 209.30,349.93 208.77,352.15 208.87,354.68 208.87,357.92"/>
    </edge>
    <edge id=":140_1" function="internal">
        <lane id=":140_1_0" index="0" speed="13.90" length="12.38" shape="211.18,347.62 208.68,349.84 206.55,351.73 204.42,353.62 201.92,355.84"/>
    </edge>
    <edge id=":140_2" function="internal">
        <lane id=":140_2_0" index="0" speed="13.90" length="2.41" shape="211.18,347.62 209.71,347.82 208.85,347.48"/>
    </edge>
    <edge id=":140_9" function="internal">
        <lane id=":140_9_0" index="0" speed="13.90" length="2.41" shape="208.85,347.48 208.61,346.59 208.99,345.15"/>
    </edge>
    <edge id=":140_3" function="internal">
        <lane id=":140_3_0" index="0" speed="13.90" length="12.38" shape="199.73,353.37 202.23,351.16 204.36,349.26 206.49,347.37 208.99,345.15"/>
    </edge>
    <edge id=":140_4" function="internal">
        <lane id=":140_4_0" index="0" speed="13.90" length="7.27" shape="199.73,353.37 204.13,350.25 206.00,350.08"/>
    </edge>
    <edge id=":140_5" function="internal">
        <lane id=":140_5_0" index="0" speed="13.90" length="2.41" shape="199.73,353.37 201.20,353.17 202.06,353.51"/>
    </edge>
    <edge id=":140_10" function="internal">
        <lane id=":140_10_0" index="0" speed="13.90" length="9.54" shape="206.00,350.08 207.13,349.97 208.71,352.53 208.87,357.92"/>
    </edge>
    <edge id=":140_11" function="internal">
        <lane id=":140_11_0" index="0" speed="13.90" length="2.41" shape="202.06,353.51 202.30,354.40 201.92,355.84"/>
    </edge>
    <edge id=":140_6" function="internal">
        <lane id=":140_6_0" index="0" speed="13.90" length="6.73" shape="205.58,357.66 205.52,355.50 204.88,354.48 203.69,354.59 201.92,355.84"/>
    </edge>
    <edge id=":140_7" function="internal">
        <lane id=":140_7_0" index="0" speed="13.90" length="13.36" shape="205.58,357.66 205.76,354.07 206.03,350.78 206.93,347.81 208.99,345.15"/>
    </edge>
    <edge id=":140_8" function="internal">
        <lane id=":140_8_0" index="0" speed="13.90" length="4.82" shape="205.58,357.66 206.50,356.50 207.36,356.15 208.15,356.63 208.87,357.92"/>
    </edge>
    <edge id=":141_0" function="internal">
        <lane id=":141_0_0" index="0" speed="13.90" length="0.10" shape="334.27,223.83 334.31,223.79"/>
    </edge>
    <edge id=":141_1" function="internal">
        <lane id=":141_1_0" index="0" speed="13.90" length="2.41" shape="334.27,223.83 332.82,224.13 331.94,223.84"/>
    </edge>
    <edge id=":141_4" function="internal">
        <lane id=":141_4_0" index="0" speed="13.90" length="2.41" shape="331.94,223.84 331.64,222.97 331.93,221.51"/>
    </edge>
    <edge id=":141_2" function="internal">
        <lane id=":141_2_0" index="0" speed="13.90" length="0.10" shape="331.91,221.53 331.93,221.51"/>
    </edge>
    <edge id=":141_3" function="internal">
        <lane id=":141_3_0" index="0" speed="13.90" length="2.41" shape="331.91,221.53 333.36,221.19 334.24,221.45"/>
    </edge>
    <edge id=":141_5" function="internal">
        <lane id=":141_5_0" index="0" speed="13.90" length="2.41" shape="334.24,221.45 334.56,222.32 334.31,223.79"/>
    </edge>
    <edge id=":142_0" function="internal">
        <lane id=":142_0_0" index="0" speed="13.90" length="5.53" shape="576.08,828.42 570.66,827.34"/>
    </edge>
    <edge id=":142_1" function="internal">
        <lane id=":142_1_0" index="0" speed="13.90" length="24.21" shape="576.08,828.42 566.33,830.52 562.31,829.71 564.02,825.98 568.52,821.96"/>
    </edge>
    <edge id=":142_2" function="internal">
        <lane id=":142_2_0" index="0" speed="13.90" length="2.99" shape="576.08,828.42 574.67,827.96 574.05,827.28 574.16,826.71"/>
    </edge>
    <edge id=":142_9" function="internal">
        <lane id=":142_9_0" index="0" speed="13.90" length="3.94" shape="568.52,821.96 571.46,819.33"/>
    </edge>
    <edge id=":142_10" function="internal">
        <lane id=":142_10_0" index="0" speed="13.90" length="1.83" shape="574.16,826.71 574.22,826.37 575.19,825.24"/>
    </edge>
    <edge id=":142_3" function="internal">
        <lane id=":142_3_0" index="0" speed="13.90" length="10.28" shape="573.50,821.93 570.78,824.35 570.16,825.72 571.63,826.01 575.19,825.24"/>
    </edge>
    <edge id=":142_4" function="internal">
        <lane id=":142_4_0" index="0" speed="13.90" length="6.11" shape="573.50,821.93 570.66,827.34"/>
    </edge>
    <edge id=":142_5" function="internal">
        <lane id=":142_5_0" index="0" speed="13.90" length="4.82" shape="573.50,821.93 572.02,822.04 571.18,821.65 571.00,820.75 571.46,819.33"/>
    </edge>
    <edge id=":142_6" function="internal">
        <lane id=":142_6_0" index="0" speed="13.90" length="5.56" shape="569.17,824.40 571.46,819.33"/>
    </edge>
    <edge id=":142_7" function="internal">
        <lane id=":142_7_0" index="0" speed="13.90" length="6.07" shape="569.17,824.40 575.19,825.24"/>
    </edge>
    <edge id=":142_8" function="internal">
        <lane id=":142_8_0" index="0" speed="13.90" length="3.14" shape="569.17,824.40 570.65,824.58 571.39,825.13 571.40,825.86"/>
    </edge>
    <edge id=":142_11" function="internal">
        <lane id=":142_11_0" index="0" speed="13.90" length="1.68" shape="571.40,825.86 571.40,826.05 570.66,827.34"/>
    </edge>
    <edge id=":143_0" function="internal">
        <lane id=":143_0_0" index="0" speed="13.90" length="4.82" shape="623.97,762.72 624.12,761.24 624.65,760.49 625.57,760.46 626.88,761.17"/>
    </edge>
    <edge id=":145_0" function="internal">
        <lane id=":145_0_0" index="0" speed="13.90" length="0.10" shape="785.48,420.35 785.48,420.35"/>
    </edge>
    <edge id=":146_0" function="internal">
        <lane id=":146_0_0" index="0" speed="13.90" length="8.02" shape="207.90,389.52 207.43,387.98 206.49,386.42 205.06,384.86 203.16,383.29"/>
    </edge>
    <edge id=":146_1" function="internal">
        <lane id=":146_1_0" index="0" speed="13.90" length="8.44" shape="207.90,389.52 206.68,381.17"/>
    </edge>
    <edge id=":146_2" function="internal">
        <lane id=":146_2_0" index="0" speed="13.90" length="2.41" shape="207.90,389.52 208.54,388.18 209.29,387.65"/>
    </edge>
    <edge id=":146_6" function="internal">
        <lane id=":146_6_0" index="0" speed="13.90" length="2.41" shape="209.29,387.65 210.17,387.94 211.16,389.05"/>
    </edge>
    <edge id=":146_3" function="internal">
        <lane id=":146_3_0" index="0" speed="13.90" length="8.44" shape="209.94,380.69 211.16,389.05"/>
    </edge>
    <edge id=":146_4" function="internal">
        <lane id=":146_4_0" index="0" speed="13.90" length="5.15" shape="209.94,380.69 209.98,384.03 208.93,385.50"/>
    </edge>
    <edge id=":146_5" function="internal">
        <lane id=":146_5_0" index="0" speed="13.90" length="2.41" shape="209.94,380.69 209.30,382.04 208.55,382.56"/>
    </edge>
    <edge id=":146_7" function="internal">
        <lane id=":146_7_0" index="0" speed="13.90" length="6.39" shape="208.93,385.50 208.87,385.58 206.59,385.33 203.16,383.29"/>
    </edge>
    <edge id=":146_8" function="internal">
        <lane id=":146_8_0" index="0" speed="13.90" length="2.41" shape="208.55,382.56 207.67,382.28 206.68,381.17"/>
    </edge>
    <edge id=":147_0" function="internal">
        <lane id=":147_0_0" index="0" speed="13.90" length="6.96" shape="186.22,375.76 184.08,375.57 182.26,375.72 180.77,376.19 179.60,376.99"/>
    </edge>