<?xml version="1.0" encoding="UTF-8"?>

<!-- generated on Sa 22 Apr 2017 15:05:33 CEST by Netedit Version 0.25.0
<?xml version="1.0" encoding="UTF-8"?>

<configuration xmlns:xsi="http://www.w3.org/2001/XMLSchema-instance" xsi:noNamespaceSchemaLocation="http://sumo.dlr.de/xsd/netedit.exeConfiguration.xsd">

    <input>
        <sumo-net-file value="/home/chris/Desktop/OL-SUMO-MAP/filter-map.net.xml"/>
    </input>

    <output>
        <output-file value="/home/chris/Desktop/OL-SUMO-MAP/bike.net.xml"/>
    </output>

    <processing>
        <no-turnarounds value="true"/>
        <offset.disable-normalization value="true"/>
        <lefthand value="false"/>
        <junctions.corner-detail value="0"/>
    </processing>

</configuration>
-->

<net version="0.25" xmlns:xsi="http://www.w3.org/2001/XMLSchema-instance" xsi:noNamespaceSchemaLocation="http://sumo.dlr.de/xsd/net_file.xsd">

    <location netOffset="-565439.62,-5934035.06" convBoundary="0.00,0.00,2124.70,2927.60" origBoundary="9.987769,53.551075,10.020109,53.577252" projParameter="+proj=utm +zone=32 +ellps=WGS84 +datum=WGS84 +units=m +no_defs"/>

    <edge id=":0_0" function="internal">
        <lane id=":0_0_0" index="0" speed="13.90" length="10.22" shape="1948.59,1482.27 1946.03,1480.71 1944.22,1479.63 1942.41,1478.55 1939.83,1477.02"/>
    </edge>
    <edge id=":0_1" function="internal">
        <lane id=":0_1_0" index="0" speed="13.90" length="10.25" shape="1948.59,1482.27 1946.22,1480.52 1944.95,1478.88 1943.97,1476.94 1942.47,1474.28"/>
    </edge>
    <edge id=":1_0" function="internal">
        <lane id=":1_0_0" index="0" speed="13.90" length="6.07" shape="1932.53,1442.15 1933.89,1443.42 1935.03,1443.69 1935.95,1442.97 1936.65,1441.24"/>
    </edge>
    <edge id=":1_1" function="internal">
        <lane id=":1_1_0" index="0" speed="13.90" length="9.92" shape="1932.53,1442.15 1938.76,1449.86"/>
    </edge>
    <edge id=":1_2" function="internal">
        <lane id=":1_2_0" index="0" speed="13.90" length="9.90" shape="1934.80,1450.96 1936.65,1441.24"/>
    </edge>
    <edge id=":1_3" function="internal">
        <lane id=":1_3_0" index="0" speed="13.90" length="2.61" shape="1934.80,1450.96 1935.30,1448.92 1935.65,1448.55"/>
    </edge>
    <edge id=":1_4" function="internal">
        <lane id=":1_4_0" index="0" speed="13.90" length="4.00" shape="1935.65,1448.55 1936.13,1448.05 1937.28,1448.37 1938.76,1449.86"/>
    </edge>
    <edge id=":101_0" function="internal">
        <lane id=":101_0_0" index="0" speed="13.90" length="13.61" shape="1785.05,1243.29 1780.04,1243.20 1778.22,1243.74 1779.59,1244.92 1784.15,1246.73"/>
    </edge>
    <edge id=":101_1" function="internal">
        <lane id=":101_1_0" index="0" speed="13.90" length="5.02" shape="1779.75,1244.30 1784.15,1246.73"/>
    </edge>
    <edge id=":103_0" function="internal">
        <lane id=":103_0_0" index="0" allow="pedestrian" speed="13.90" length="2.42" shape="1857.51,1333.64 1857.83,1334.21 1857.91,1334.76 1857.74,1335.28 1857.32,1335.79"/>
    </edge>
    <edge id=":104_0" function="internal">
        <lane id=":104_0_0" index="0" speed="13.90" length="6.90" shape="953.03,677.53 948.18,672.62"/>
    </edge>
    <edge id=":104_1" function="internal">
        <lane id=":104_1_0" index="0" speed="13.90" length="1.89" shape="953.03,677.53 952.07,676.36 951.99,675.99"/>
    </edge>
    <edge id=":104_4" function="internal">
        <lane id=":104_4_0" index="0" speed="13.90" length="3.42" shape="951.99,675.99 951.81,675.24 952.24,674.18 953.36,673.17"/>
    </edge>
    <edge id=":104_2" function="internal">
        <lane id=":104_2_0" index="0" speed="13.90" length="5.20" shape="947.59,676.96 948.69,676.01 949.16,674.97 948.99,673.84 948.18,672.62"/>
    </edge>
    <edge id=":104_3" function="internal">
        <lane id=":104_3_0" index="0" speed="13.90" length="6.90" shape="947.59,676.96 953.36,673.17"/>
    </edge>
    <edge id=":105_0" function="internal">
        <lane id=":105_0_0" index="0" speed="13.90" length="7.07" shape="939.64,663.49 934.67,658.47"/>
    </edge>
    <edge id=":105_1" function="internal">
        <lane id=":105_1_0" index="0" speed="13.90" length="6.65" shape="935.68,664.86 935.83,662.67 935.71,660.88 935.32,659.48 934.67,658.47"/>
    </edge>
    <edge id=":106_0" function="internal">
        <lane id=":106_0_0" index="0" speed="13.90" length="5.07" shape="1915.46,1522.38 1913.77,1527.15"/>
    </edge>
    <edge id=":106_1" function="internal">
        <lane id=":106_1_0" index="0" speed="13.90" length="9.44" shape="1915.46,1522.38 1914.47,1525.53 1913.51,1526.57 1912.58,1525.50 1911.68,1522.32"/>
    </edge>
    <edge id=":108_0" function="internal">
        <lane id=":108_0_0" index="0" speed="13.90" length="0.10" shape="1860.91,1355.38 1860.91,1355.38"/>
    </edge>
    <edge id=":109_0" function="internal">
        <lane id=":109_0_0" index="0" speed="13.90" length="5.00" shape="1904.64,1408.66 1907.86,1412.49"/>
    </edge>
    <edge id=":109_1" function="internal">
        <lane id=":109_1_0" index="0" speed="13.90" length="5.61" shape="1904.64,1408.66 1904.60,1414.27"/>
    </edge>
    <edge id=":111_0" function="internal">
        <lane id=":111_0_0" index="0" speed="13.90" length="0.10" shape="1911.66,1551.39 1911.66,1551.39"/>
    </edge>
    <edge id=":112_0" function="internal">
        <lane id=":112_0_0" index="0" speed="13.90" length="0.10" shape="1047.56,712.73 1047.56,712.73"/>
    </edge>
    <edge id=":113_0" function="internal">
        <lane id=":113_0_0" index="0" speed="13.90" length="12.75" shape="1000.69,708.14 997.29,708.02 994.31,707.91 991.34,707.78 987.94,707.64"/>
    </edge>
    <edge id=":113_1" function="internal">
        <lane id=":113_1_0" index="0" speed="13.90" length="12.58" shape="1000.69,708.14 997.36,707.76 994.60,706.90 991.94,705.63 988.97,703.98"/>
    </edge>
    <edge id=":113_2" function="internal">
        <lane id=":113_2_0" index="0" speed="13.90" length="2.43" shape="998.80,704.34 997.15,705.91 997.02,705.98"/>
    </edge>
    <edge id=":113_3" function="internal">
        <lane id=":113_3_0" index="0" speed="13.90" length="2.81" shape="998.80,704.34 997.22,705.69 996.50,705.82"/>
    </edge>
    <edge id=":113_4" function="internal">
        <lane id=":113_4_0" index="0" speed="13.90" length="9.35" shape="997.02,705.98 994.80,706.99 991.72,707.56 987.94,707.64"/>
    </edge>
    <edge id=":113_5" function="internal">
        <lane id=":113_5_0" index="0" speed="13.90" length="7.94" shape="996.50,705.82 995.05,706.07 992.30,705.50 988.97,703.98"/>
    </edge>
    <edge id=":115_0" function="internal">
        <lane id=":115_0_0" index="0" speed="13.90" length="0.59" shape="1813.36,1361.86 1813.79,1362.26"/>
    </edge>
    <edge id=":118_0" function="internal">
        <lane id=":118_0_0" index="0" speed="13.90" length="5.31" shape="868.04,516.76 867.07,517.87 866.64,519.02 866.76,520.22 867.43,521.45"/>
    </edge>
    <edge id=":118_1" function="internal">
        <lane id=":118_1_0" index="0" speed="13.90" length="6.45" shape="868.04,516.76 863.08,520.89"/>
    </edge>
    <edge id=":118_2" function="internal">
        <lane id=":118_2_0" index="0" speed="13.90" length="6.45" shape="863.69,516.21 867.43,521.45"/>
    </edge>
    <edge id=":118_3" function="internal">
        <lane id=":118_3_0" index="0" speed="13.90" length="1.69" shape="863.69,516.21 864.35,517.52 864.37,517.73"/>
    </edge>
    <edge id=":118_4" function="internal">
        <lane id=":118_4_0" index="0" speed="13.90" length="3.61" shape="864.37,517.73 864.47,518.74 864.05,519.86 863.08,520.89"/>
    </edge>
    <edge id=":119_0" function="internal">
        <lane id=":119_0_0" index="0" allow="bicycle" speed="13.90" length="11.07" shape="883.23,537.20 884.18,541.81 885.01,545.09 885.75,547.05 886.38,547.68"/>
    </edge>
    <edge id=":119_1" function="internal">
        <lane id=":119_1_0" index="0" speed="13.90" length="15.01" shape="883.23,537.20 884.03,540.88 885.07,544.49 886.43,547.98 888.19,551.29"/>
    </edge>
    <edge id=":119_2" function="internal">
        <lane id=":119_2_0" index="0" allow="bicycle" speed="13.90" length="11.07" shape="879.80,538.79 882.52,542.69 884.53,545.47 885.81,547.13 886.38,547.68"/>
    </edge>
    <edge id=":119_3" function="internal">
        <lane id=":119_3_0" index="0" speed="13.90" length="15.06" shape="879.80,538.79 881.94,541.88 884.07,544.98 886.17,548.12 888.19,551.29"/>
    </edge>
    <edge id=":121_0" function="internal">
        <lane id=":121_0_0" index="0" speed="13.90" length="0.10" shape="1814.70,1343.09 1814.70,1343.09"/>
    </edge>
    <edge id=":122_0" function="internal">
        <lane id=":122_0_0" index="0" speed="13.90" length="5.87" shape="1857.98,1259.65 1860.85,1254.53"/>
    </edge>
    <edge id=":122_1" function="internal">
        <lane id=":122_1_0" index="0" speed="13.90" length="5.07" shape="1857.98,1259.65 1862.73,1257.89"/>
    </edge>
    <edge id=":123_0" function="internal">
        <lane id=":123_0_0" index="0" speed="13.90" length="5.07" shape="1866.26,1232.01 1864.84,1227.14"/>
    </edge>
    <edge id=":123_1" function="internal">
        <lane id=":123_1_0" index="0" speed="13.90" length="5.34" shape="1869.34,1230.01 1864.84,1227.14"/>
    </edge>
    <edge id=":124_0" function="internal">
        <lane id=":124_0_0" index="0" allow="bicycle" speed="13.90" length="0.10" shape="1823.84,1368.03 1823.84,1368.03"/>
    </edge>
    <edge id=":125_0" function="internal">
        <lane id=":125_0_0" index="0" allow="bicycle" speed="13.90" length="0.22" shape="1832.00,1378.06 1832.13,1378.24"/>
    </edge>
    <edge id=":127_0" function="internal">
        <lane id=":127_0_0" index="0" allow="bicycle" speed="13.90" length="6.48" shape="1845.77,1401.93 1848.86,1407.63"/>
    </edge>
    <edge id=":127_1" function="internal">
        <lane id=":127_1_0" index="0" allow="bicycle" speed="13.90" length="0.40" shape="1844.56,1407.21 1844.85,1406.94"/>
    </edge>
    <edge id=":127_2" function="internal">
        <lane id=":127_2_0" index="0" speed="13.90" length="5.17" shape="1844.85,1406.94 1845.75,1406.10 1846.86,1405.80 1847.90,1406.31 1848.86,1407.63"/>
    </edge>
    <edge id=":136_0" function="internal">
        <lane id=":136_0_0" index="0" speed="13.90" length="6.14" shape="1923.81,1467.25 1922.10,1466.44 1920.92,1466.54 1920.30,1467.53 1920.21,1469.42"/>
    </edge>
    <edge id=":136_1" function="internal">
        <lane id=":136_1_0" index="0" speed="13.90" length="10.45" shape="1923.81,1467.25 1921.25,1465.62 1919.42,1464.41 1917.62,1463.17 1915.14,1461.42"/>
    </edge>
    <edge id=":136_2" function="internal">
        <lane id=":136_2_0" index="0" speed="13.90" length="10.44" shape="1918.50,1459.14 1919.20,1462.10 1919.64,1464.24 1919.94,1466.40 1920.21,1469.42"/>
    </edge>
    <edge id=":136_3" function="internal">
        <lane id=":136_3_0" index="0" speed="13.90" length="2.80" shape="1918.50,1459.14 1918.79,1461.38 1918.59,1461.89"/>
    </edge>
    <edge id=":136_4" function="internal">
        <lane id=":136_4_0" index="0" speed="13.90" length="4.15" shape="1918.59,1461.89 1918.33,1462.51 1917.11,1462.52 1915.14,1461.42"/>
    </edge>
    <edge id=":138_0" function="internal">
        <lane id=":138_0_0" index="0" speed="13.90" length="0.10" shape="1853.06,1344.94 1853.06,1344.94"/>
    </edge>
    <edge id=":140_0" function="internal">
        <lane id=":140_0_0" index="0" speed="13.90" length="7.62" shape="203.89,351.89 209.58,346.83"/>
    </edge>
    <edge id=":140_1" function="internal">
        <lane id=":140_1_0" index="0" speed="13.90" length="7.18" shape="207.55,353.71 209.58,346.83"/>
    </edge>
    <edge id=":141_0" function="internal">
        <lane id=":141_0_0" index="0" speed="13.90" length="0.10" shape="333.10,222.67 333.10,222.67"/>
    </edge>
    <edge id=":142_0" function="internal">
        <lane id=":142_0_0" index="0" allow="bicycle" speed="13.90" length="5.17" shape="562.50,829.63 565.94,825.77"/>
    </edge>
    <edge id=":142_1" function="internal">
        <lane id=":142_1_0" index="0" allow="pedestrian" speed="13.90" length="5.16" shape="562.50,829.63 567.63,829.09"/>
    </edge>
    <edge id=":145_0" function="internal">
        <lane id=":145_0_0" index="0" speed="13.90" length="0.10" shape="785.48,420.35 785.48,420.35"/>
    </edge>
    <edge id=":146_0" function="internal">
        <lane id=":146_0_0" index="0" speed="13.90" length="7.15" shape="209.63,389.95 209.23,388.81 208.32,387.55 206.92,386.17 205.03,384.66"/>
    </edge>
    <edge id=":146_1" function="internal">
        <lane id=":146_1_0" index="0" speed="13.90" length="7.49" shape="209.63,389.95 208.54,382.54"/>
    </edge>
    <edge id=":147_0" function="internal">
        <lane id=":147_0_0" index="0" speed="13.90" length="2.42" shape="184.19,375.45 182.37,374.94 182.00,374.56"/>
    </edge>
    <edge id=":147_2" function="internal">
        <lane id=":147_2_0" index="0" speed="13.90" length="3.71" shape="182.00,374.56 181.55,374.10 181.72,372.94 182.89,371.45"/>
    </edge>
    <edge id=":147_1" function="internal">
        <lane id=":147_1_0" index="0" speed="13.90" length="6.97" shape="177.91,376.34 182.89,371.45"/>
    </edge>
    <edge id=":149_0" function="internal">
        <lane id=":149_0_0" index="0" allow="pedestrian" speed="13.90" length="0.10" shape="942.17,487.01 942.18,487.00"/>
    </edge>
    <edge id=":15_0" function="internal">
        <lane id=":15_0_0" index="0" speed="13.90" length="6.61" shape="1726.59,2259.94 1724.10,2266.07"/>
    </edge>
    <edge id=":15_1" function="internal">
        <lane id=":15_1_0" index="0" speed="13.90" length="2.24" shape="1721.47,2262.69 1723.19,2262.70 1723.64,2262.95"/>
    </edge>
    <edge id=":15_2" function="internal">
        <lane id=":15_2_0" index="0" speed="13.90" length="3.54" shape="1723.64,2262.95 1724.21,2263.27 1724.51,2264.39 1724.10,2266.07"/>
    </edge>
    <edge id=":151_0" function="internal">
        <lane id=":151_0_0" index="0" allow="pedestrian" speed="13.90" length="4.44" shape="895.43,546.03 894.73,546.77 894.47,547.68 894.65,548.75 895.28,549.98"/>
    </edge>
    <edge id=":151_1" function="internal">
        <lane id=":151_1_0" index="0" allow="pedestrian" speed="13.90" length="8.84" shape="895.43,546.03 888.13,551.01"/>
    </edge>
    <edge id=":151_2" function="internal">
        <lane id=":151_2_0" index="0" allow="pedestrian" speed="13.90" length="6.82" shape="892.53,543.74 895.28,549.98"/>
    </edge>
    <edge id=":151_3" function="internal">
        <lane id=":151_3_0" index="0" allow="pedestrian" speed="13.90" length="9.07" shape="892.53,543.74 892.65,545.55 891.96,547.36 890.45,549.19 888.13,551.01"/>
    </edge>
    <edge id=":151_4" function="internal">
        <lane id=":151_4_0" index="0" allow="pedestrian" speed="13.90" length="3.50" shape="886.58,547.67 889.75,547.70 890.08,547.75"/>
    </edge>
    <edge id=":151_5" function="internal">
        <lane id=":151_5_0" index="0" allow="pedestrian" speed="13.90" length="3.21" shape="886.58,547.67 889.30,547.76 889.74,547.98"/>
    </edge>
    <edge id=":151_6" function="internal">
        <lane id=":151_6_0" index="0" speed="13.90" length="5.83" shape="890.08,547.75 892.25,548.09 894.10,548.85 895.28,549.98"/>
    </edge>
    <edge id=":151_7" function="internal">
        <lane id=":151_7_0" index="0" speed="13.90" length="4.48" shape="889.74,547.98 890.47,548.35 890.08,549.43 888.13,551.01"/>
    </edge>
    <edge id=":152_0" function="internal">
        <lane id=":152_0_0" index="0" speed="13.90" length="5.27" shape="1066.66,681.28 1065.70,682.42 1065.41,683.53 1065.80,684.61 1066.86,685.65"/>
    </edge>
    <edge id=":152_1" function="internal">
        <lane id=":152_1_0" index="0" speed="13.90" length="6.94" shape="1066.66,681.28 1061.50,685.93"/>
    </edge>
    <edge id=":152_2" function="internal">
        <lane id=":152_2_0" index="0" speed="13.90" length="5.93" shape="1066.66,681.28 1065.35,682.16 1064.01,682.51 1062.64,682.31 1061.25,681.56"/>
    </edge>
    <edge id=":156_0" function="internal">
        <lane id=":156_0_0" index="0" speed="13.90" length="8.12" shape="379.65,825.84 376.27,818.46"/>
    </edge>
    <edge id=":156_1" function="internal">
        <lane id=":156_1_0" index="0" allow="pedestrian" speed="13.90" length="2.29" shape="379.65,825.84 378.90,824.17 378.94,823.72"/>
    </edge>
    <edge id=":156_6" function="internal">
        <lane id=":156_6_0" index="0" speed="13.90" length="3.72" shape="378.94,823.72 379.01,823.00 379.98,822.35 381.81,822.20"/>
    </edge>
    <edge id=":156_2" function="internal">
        <lane id=":156_2_0" index="0" speed="13.90" length="6.72" shape="371.94,821.90 374.22,821.71 375.70,821.08 376.38,820.00 376.27,818.46"/>
    </edge>
    <edge id=":156_3" function="internal">
        <lane id=":156_3_0" index="0" allow="pedestrian" speed="13.90" length="9.88" shape="371.94,821.90 381.81,822.20"/>
    </edge>
    <edge id=":156_4" function="internal">
        <lane id=":156_4_0" index="0" speed="13.90" length="8.17" shape="373.46,825.71 375.07,823.86 376.08,822.03 376.48,820.23 376.27,818.46"/>
    </edge>
    <edge id=":156_5" function="internal">
        <lane id=":156_5_0" index="0" allow="pedestrian" speed="13.90" length="9.32" shape="373.46,825.71 375.42,824.09 377.46,822.97 379.59,822.34 381.81,822.20"/>
    </edge>
    <edge id=":157_0" function="internal">
        <lane id=":157_0_0" index="0" speed="13.90" length="12.39" shape="367.64,788.61 366.59,785.45 365.48,782.82 364.26,780.24 362.85,777.21"/>
    </edge>
    <edge id=":157_1" function="internal">
        <lane id=":157_1_0" index="0" speed="13.90" length="12.39" shape="367.64,788.61 366.92,785.37 366.64,782.54 366.56,779.67 366.41,776.32"/>
    </edge>
    <edge id=":158_0" function="internal">
        <lane id=":158_0_0" index="0" speed="13.90" length="6.04" shape="406.81,861.34 405.26,860.42 404.05,860.38 403.16,861.22 402.60,862.93"/>
    </edge>
    <edge id=":158_1" function="internal">
        <lane id=":158_1_0" index="0" speed="13.90" length="7.95" shape="406.81,861.34 405.06,860.25 403.23,859.70 401.31,859.69 399.32,860.21"/>
    </edge>
    <edge id=":158_2" function="internal">
        <lane id=":158_2_0" index="0" speed="13.90" length="8.28" shape="406.81,861.34 400.62,855.83"/>
    </edge>
    <edge id=":158_3" function="internal">
        <lane id=":158_3_0" index="0" speed="13.90" length="9.09" shape="408.65,856.71 406.30,857.82 404.51,859.22 403.27,860.93 402.60,862.93"/>
    </edge>
    <edge id=":158_4" function="internal">
        <lane id=":158_4_0" index="0" speed="13.90" length="9.97" shape="408.65,856.71 399.32,860.21"/>
    </edge>
    <edge id=":158_5" function="internal">
        <lane id=":158_5_0" index="0" speed="13.90" length="8.54" shape="408.65,856.71 406.17,857.37 404.01,857.45 402.16,856.94 400.62,855.83"/>
    </edge>
    <edge id=":158_6" function="internal">
        <lane id=":158_6_0" index="0" speed="13.90" length="9.86" shape="405.95,853.65 402.60,862.93"/>
    </edge>
    <edge id=":158_7" function="internal">
        <lane id=":158_7_0" index="0" speed="13.90" length="9.33" shape="405.95,853.65 399.32,860.21"/>
    </edge>
    <edge id=":158_8" function="internal">
        <lane id=":158_8_0" index="0" speed="13.90" length="3.62" shape="405.95,853.65 404.66,855.66 403.69,856.41"/>
    </edge>
    <edge id=":158_9" function="internal">
        <lane id=":158_9_0" index="0" speed="13.90" length="3.44" shape="403.69,856.41 403.34,856.69 401.99,856.74 400.62,855.83"/>
    </edge>
    <edge id=":159_0" function="internal">
        <lane id=":159_0_0" index="0" speed="13.90" length="5.01" shape="329.42,878.90 324.48,879.72"/>
    </edge>
    <edge id=":159_1" function="internal">
        <lane id=":159_1_0" index="0" speed="13.90" length="6.50" shape="329.42,878.90 327.36,879.02 326.30,878.49 326.22,877.30 327.13,875.45"/>
    </edge>
    <edge id=":16_0" function="internal">
        <lane id=":16_0_0" index="0" speed="13.90" length="5.15" shape="1857.00,1955.03 1856.85,1956.47 1857.17,1957.60 1857.97,1958.42 1859.25,1958.93"/>
    </edge>
    <edge id=":16_1" function="internal">
        <lane id=":16_1_0" index="0" speed="13.90" length="6.49" shape="1857.00,1955.03 1854.85,1961.15"/>
    </edge>
    <edge id=":16_2" function="internal">
        <lane id=":16_2_0" index="0" speed="13.90" length="6.40" shape="1853.13,1957.08 1859.25,1958.93"/>
    </edge>
    <edge id=":16_3" function="internal">
        <lane id=":16_3_0" index="0" speed="13.90" length="1.44" shape="1853.13,1957.08 1854.39,1957.76"/>
    </edge>
    <edge id=":16_4" function="internal">
        <lane id=":16_4_0" index="0" speed="13.90" length="3.71" shape="1854.39,1957.76 1855.10,1958.67 1855.25,1959.80 1854.85,1961.15"/>
    </edge>
    <edge id=":161_0" function="internal">
        <lane id=":161_0_0" index="0" speed="13.90" length="7.39" shape="344.33,729.73 342.08,722.69"/>
    </edge>
    <edge id=":161_1" function="internal">
        <lane id=":161_1_0" index="0" speed="13.90" length="1.88" shape="344.33,729.73 344.03,728.14 344.10,727.89"/>
    </edge>
    <edge id=":161_4" function="internal">
        <lane id=":161_4_0" index="0" speed="13.90" length="3.68" shape="344.10,727.89 344.36,727.03 345.34,726.42 346.96,726.30"/>
    </edge>
    <edge id=":161_2" function="internal">
        <lane id=":161_2_0" index="0" speed="13.90" length="5.29" shape="339.58,726.29 341.05,725.97 341.96,725.27 342.30,724.18 342.08,722.69"/>
    </edge>
    <edge id=":161_3" function="internal">
        <lane id=":161_3_0" index="0" speed="13.90" length="7.38" shape="339.58,726.29 346.96,726.30"/>
    </edge>
    <edge id=":164_0" function="internal">
        <lane id=":164_0_0" index="0" allow="pedestrian" speed="13.90" length="5.23" shape="948.02,726.93 948.38,728.39 949.05,729.45 950.02,730.11 951.30,730.36"/>
    </edge>
    <edge id=":164_1" function="internal">
        <lane id=":164_1_0" index="0" allow="pedestrian" speed="13.90" length="6.22" shape="945.09,730.19 951.30,730.36"/>
    </edge>
    <edge id=":165_0" function="internal">
        <lane id=":165_0_0" index="0" allow="pedestrian" speed="13.90" length="5.24" shape="1055.28,737.41 1055.13,738.90 1055.45,740.08 1056.22,740.94 1057.46,741.49"/>
    </edge>
    <edge id=":165_1" function="internal">
        <lane id=":165_1_0" index="0" allow="pedestrian" speed="13.90" length="6.42" shape="1051.39,739.42 1057.46,741.49"/>
    </edge>
    <edge id=":169_0" function="internal">
        <lane id=":169_0_0" index="0" speed="13.90" length="7.51" shape="1366.06,2338.93 1371.75,2334.03"/>
    </edge>
    <edge id=":169_1" function="internal">
        <lane id=":169_1_0" index="0" speed="13.90" length="7.91" shape="1369.18,2341.51 1371.75,2334.03"/>
    </edge>
    <edge id=":171_0" function="internal">
        <lane id=":171_0_0" index="0" allow="bicycle" speed="13.90" length="7.65" shape="1892.51,1527.70 1893.42,1535.30"/>
    </edge>
    <edge id=":171_1" function="internal">
        <lane id=":171_1_0" index="0" allow="bicycle" speed="13.90" length="0.72" shape="1889.49,1534.16 1890.00,1533.65"/>
    </edge>
    <edge id=":171_2" function="internal">
        <lane id=":171_2_0" index="0" speed="13.90" length="5.99" shape="1890.00,1533.65 1891.01,1532.63 1892.16,1532.31 1892.97,1533.20 1893.42,1535.30"/>
    </edge>
    <edge id=":174_0" function="internal">
        <lane id=":174_0_0" index="0" allow="pedestrian" speed="13.90" length="0.22" shape="665.60,670.48 665.40,670.55"/>
    </edge>
    <edge id=":175_0" function="internal">
        <lane id=":175_0_0" index="0" allow="pedestrian" speed="13.90" length="0.22" shape="608.94,693.76 608.74,693.86"/>
    </edge>
    <edge id=":177_0" function="internal">
        <lane id=":177_0_0" index="0" allow="pedestrian" speed="13.90" length="0.98" shape="570.11,727.71 569.29,728.26"/>
    </edge>
    <edge id=":181_0" function="internal">
        <lane id=":181_0_0" index="0" speed="13.90" length="6.77" shape="389.84,842.77 386.18,837.07"/>
    </edge>
    <edge id=":181_1" function="internal">
        <lane id=":181_1_0" index="0" speed="13.90" length="1.87" shape="389.84,842.77 389.01,841.33 388.99,841.13"/>
    </edge>
    <edge id=":181_4" function="internal">
        <lane id=":181_4_0" index="0" speed="13.90" length="3.59" shape="388.99,841.13 388.92,840.16 389.55,839.25 390.92,838.62"/>
    </edge>
    <edge id=":181_2" function="internal">
        <lane id=":181_2_0" index="0" speed="13.90" length="5.16" shape="384.63,841.17 385.89,840.48 386.57,839.56 386.67,838.42 386.18,837.07"/>
    </edge>
    <edge id=":181_3" function="internal">
        <lane id=":181_3_0" index="0" speed="13.90" length="6.79" shape="384.63,841.17 390.92,838.62"/>
    </edge>
    <edge id=":182_0" function="internal">
        <lane id=":182_0_0" index="0" speed="13.90" length="0.10" shape="447.41,881.04 447.41,881.04"/>
    </edge>
    <edge id=":184_0" function="internal">
        <lane id=":184_0_0" index="0" speed="13.90" length="7.75" shape="504.05,896.29 507.82,903.07"/>
    </edge>
    <edge id=":184_1" function="internal">
        <lane id=":184_1_0" index="0" speed="13.90" length="6.91" shape="504.05,896.29 504.89,898.37 504.73,899.57 503.56,899.90 501.39,899.35"/>
    </edge>
    <edge id=":185_0" function="internal">
        <lane id=":185_0_0" index="0" speed="13.90" length="0.10" shape="488.75,894.70 488.75,894.70"/>
    </edge>
    <edge id=":186_0" function="internal">
        <lane id=":186_0_0" index="0" speed="13.90" length="5.57" shape="417.25,828.14 417.76,829.39 418.65,830.22 419.93,830.63 421.58,830.60"/>
    </edge>
    <edge id=":186_1" function="internal">
        <lane id=":186_1_0" index="0" speed="13.90" length="7.56" shape="417.25,828.14 419.90,835.22"/>
    </edge>
    <edge id=":186_2" function="internal">
        <lane id=":186_2_0" index="0" speed="13.90" length="7.82" shape="417.25,828.14 415.35,835.72"/>
    </edge>
    <edge id=":186_3" function="internal">
        <lane id=":186_3_0" index="0" speed="13.90" length="9.00" shape="412.79,832.50 421.58,830.60"/>
    </edge>
    <edge id=":186_4" function="internal">
        <lane id=":186_4_0" index="0" speed="13.90" length="1.80" shape="412.79,832.50 414.57,832.23"/>
    </edge>
    <edge id=":186_5" function="internal">
        <lane id=":186_5_0" index="0" speed="13.90" length="1.81" shape="412.79,832.50 414.58,832.22"/>
    </edge>
    <edge id=":186_6" function="internal">
        <lane id=":186_6_0" index="0" speed="13.90" length="6.56" shape="414.57,832.23 415.15,832.14 417.12,832.47 418.70,833.49 419.90,835.22"/>
    </edge>
    <edge id=":186_7" function="internal">
        <lane id=":186_7_0" index="0" speed="13.90" length="4.78" shape="414.58,832.22 414.86,832.17 415.98,832.60 416.14,833.78 415.35,835.72"/>
    </edge>
    <edge id=":189_0" function="internal">
        <lane id=":189_0_0" index="0" speed="13.90" length="0.10" shape="399.46,879.91 399.46,879.91"/>
    </edge>
    <edge id=":19_0" function="internal">
        <lane id=":19_0_0" index="0" speed="13.90" length="0.67" shape="1268.29,2638.62 1268.24,2639.29"/>
    </edge>
    <edge id=":190_0" function="internal">
        <lane id=":190_0_0" index="0" allow="pedestrian" speed="13.90" length="5.88" shape="1898.00,1580.18 1898.34,1581.97 1898.95,1583.34 1899.84,1584.28 1900.99,1584.79"/>
    </edge>
    <edge id=":190_1" function="internal">
        <lane id=":190_1_0" index="0" allow="pedestrian" speed="13.90" length="5.67" shape="1898.00,1580.18 1897.94,1581.85 1897.36,1582.85 1896.25,1583.18 1894.61,1582.83"/>
    </edge>
    <edge id=":198_0" function="internal">
        <lane id=":198_0_0" index="0" speed="13.90" length="0.10" shape="1879.33,1266.65 1879.33,1266.65"/>
    </edge>
    <edge id=":199_0" function="internal">
        <lane id=":199_0_0" index="0" speed="13.90" length="10.46" shape="1851.94,1292.93 1849.91,1295.15 1848.79,1297.00 1847.90,1299.04 1846.58,1301.80"/>
    </edge>
    <edge id=":199_1" function="internal">
        <lane id=":199_1_0" index="0" speed="13.90" length="10.44" shape="1851.94,1292.93 1849.69,1294.96 1847.97,1296.30 1846.18,1297.56 1843.71,1299.34"/>
    </edge>
    <edge id=":20_0" function="internal">
        <lane id=":20_0_0" index="0" speed="13.90" length="10.87" shape="1872.83,1853.13 1872.40,1856.21 1872.07,1858.51 1871.75,1860.82 1871.31,1863.89"/>
    </edge>
    <edge id=":20_1" function="internal">
        <lane id=":20_1_0" index="0" speed="13.90" length="10.14" shape="1872.83,1853.13 1872.20,1855.90 1871.16,1858.23 1869.70,1860.12 1867.83,1861.56"/>
    </edge>
    <edge id=":20_2" function="internal">
        <lane id=":20_2_0" index="0" speed="13.90" length="10.59" shape="1868.89,1853.93 1870.45,1856.60 1871.33,1858.66 1871.59,1860.85 1871.31,1863.89"/>
    </edge>
    <edge id=":20_3" function="internal">
        <lane id=":20_3_0" index="0" speed="13.90" length="3.15" shape="1868.89,1853.93 1869.99,1856.35 1870.03,1856.84"/>
    </edge>
    <edge id=":20_4" function="internal">
        <lane id=":20_4_0" index="0" speed="13.90" length="5.62" shape="1870.03,1856.84 1870.18,1858.43 1869.46,1860.17 1867.83,1861.56"/>
    </edge>
    <edge id=":201_0" function="internal">
        <lane id=":201_0_0" index="0" speed="13.90" length="2.37" shape="1735.94,1208.95 1735.76,1207.50 1736.12,1206.66"/>
    </edge>
    <edge id=":201_2" function="internal">
        <lane id=":201_2_0" index="0" speed="13.90" length="2.37" shape="1736.12,1206.66 1737.00,1206.44 1738.41,1206.84"/>
    </edge>
    <edge id=":201_1" function="internal">
        <lane id=":201_1_0" index="0" speed="13.90" length="1.70" shape="1737.04,1207.86 1738.41,1206.84"/>
    </edge>
    <edge id=":203_0" function="internal">
        <lane id=":203_0_0" index="0" speed="13.90" length="5.01" shape="1956.96,1297.69 1961.13,1300.46"/>
    </edge>